(PID.TID 0000.0001) 
(PID.TID 0000.0001) // ======================================================
(PID.TID 0000.0001) //                      MITgcm UV
(PID.TID 0000.0001) //                      =========
(PID.TID 0000.0001) // ======================================================
(PID.TID 0000.0001) // execution environment starting up...
(PID.TID 0000.0001) 
(PID.TID 0000.0001) // MITgcmUV version:  checkpoint68b
(PID.TID 0000.0001) // Build user:        rgadi
(PID.TID 0000.0001) // Build host:        gplogin2.gp.local
(PID.TID 0000.0001) // Build date:        Tue Oct 22 15:09:21 PDT 2024
(PID.TID 0000.0001) 
(PID.TID 0000.0001) // =======================================================
(PID.TID 0000.0001) // Execution Environment parameter file "eedata"
(PID.TID 0000.0001) // =======================================================
(PID.TID 0000.0001) ># Example "eedata" file
(PID.TID 0000.0001) ># Lines beginning "#" are comments
(PID.TID 0000.0001) >#  nTx      :: No. threads per process in X
(PID.TID 0000.0001) >#  nTy      :: No. threads per process in Y
(PID.TID 0000.0001) ># debugMode :: print debug msg (sequence of S/R calls)
(PID.TID 0000.0001) > &EEPARMS
(PID.TID 0000.0001) >#debugMode = .TRUE.,
(PID.TID 0000.0001) > &
(PID.TID 0000.0001) ># Note: Some systems use & as the namelist terminator (as shown here).
(PID.TID 0000.0001) >#       Other systems use a / character.
(PID.TID 0000.0001) 
(PID.TID 0000.0001) // =======================================================
(PID.TID 0000.0001) // Computational Grid Specification ( see files "SIZE.h" )
(PID.TID 0000.0001) //                                  ( and "eedata"       )
(PID.TID 0000.0001) // =======================================================
(PID.TID 0000.0001)      nPx =   16 ; /* No. processes in X */
(PID.TID 0000.0001)      nPy =   16 ; /* No. processes in Y */
(PID.TID 0000.0001)      nSx =    1 ; /* No. tiles in X per process */
(PID.TID 0000.0001)      nSy =    1 ; /* No. tiles in Y per process */
(PID.TID 0000.0001)      sNx =   59 ; /* Tile size in X */
(PID.TID 0000.0001)      sNy =   15 ; /* Tile size in Y */
(PID.TID 0000.0001)      OLx =    3 ; /* Tile overlap distance in X */
(PID.TID 0000.0001)      OLy =    3 ; /* Tile overlap distance in Y */
(PID.TID 0000.0001)      nTx =    1 ; /* No. threads in X per process */
(PID.TID 0000.0001)      nTy =    1 ; /* No. threads in Y per process */
(PID.TID 0000.0001)       Nr = 1117 ; /* No. levels in the vertical   */
(PID.TID 0000.0001)       Nx =  944 ; /* Total domain size in X ( = nPx*nSx*sNx ) */
(PID.TID 0000.0001)       Ny =  240 ; /* Total domain size in Y ( = nPy*nSy*sNy ) */
(PID.TID 0000.0001)   nTiles =    1 ; /* Total no. tiles per process ( = nSx*nSy ) */
(PID.TID 0000.0001)   nProcs =  256 ; /* Total no. processes ( = nPx*nPy ) */
(PID.TID 0000.0001) nThreads =    1 ; /* Total no. threads per process ( = nTx*nTy ) */
(PID.TID 0000.0001) usingMPI =    T ; /* Flag used to control whether MPI is in use */
(PID.TID 0000.0001)                   /*  note: To execute a program with MPI calls */
(PID.TID 0000.0001)                   /*  it must be launched appropriately e.g     */
(PID.TID 0000.0001)                   /*  "mpirun -np 64 ......"                    */
(PID.TID 0000.0001) useCoupler=   F ; /* Flag used to control communications with   */
(PID.TID 0000.0001)                   /*  other model components, through a coupler */
(PID.TID 0000.0001) useNest2W_parent =    F ;/* Control 2-W Nesting comm */
(PID.TID 0000.0001) useNest2W_child  =    F ;/* Control 2-W Nesting comm */
(PID.TID 0000.0001) debugMode =    F ; /* print debug msg. (sequence of S/R calls)  */
(PID.TID 0000.0001) printMapIncludesZeros=    F ; /* print zeros in Std.Output maps */
(PID.TID 0000.0001) maxLengthPrt1D=   65 /* maxLength of 1D array printed to StdOut */
(PID.TID 0000.0001) 
(PID.TID 0000.0001) ======= Starting MPI parallel Run =========
(PID.TID 0000.0001)  My Processor Name (len:  6 ) = c-5-33
(PID.TID 0000.0001)  Located at (  0,  0) on processor grid (0: 15,0: 15)
(PID.TID 0000.0001)  Origin at  (     1,     1) on global grid (1:   944,1:   240)
(PID.TID 0000.0001)  North neighbor = processor 0001
(PID.TID 0000.0001)  South neighbor = processor 0015
(PID.TID 0000.0001)   East neighbor = processor 0016
(PID.TID 0000.0001)   West neighbor = processor 0240
(PID.TID 0000.0001) // ======================================================
(PID.TID 0000.0001) // Mapping of tiles to threads
(PID.TID 0000.0001) // ======================================================
(PID.TID 0000.0001) // -o- Thread   1, tiles (   1:   1,   1:   1)
(PID.TID 0000.0001) 
(PID.TID 0000.0001) // ======================================================
(PID.TID 0000.0001) // Tile <-> Tile connectvity table
(PID.TID 0000.0001) // ======================================================
(PID.TID 0000.0001) // Tile number: 000001 (process no. = 000000)
(PID.TID 0000.0001) //        WEST: Tile = 000016, Process = 000240, Comm = messages
(PID.TID 0000.0001) //                bi = 000001, bj = 000001
(PID.TID 0000.0001) //        EAST: Tile = 000002, Process = 000016, Comm = messages
(PID.TID 0000.0001) //                bi = 000001, bj = 000001
(PID.TID 0000.0001) //       SOUTH: Tile = 000241, Process = 000015, Comm = messages
(PID.TID 0000.0001) //                bi = 000001, bj = 000001
(PID.TID 0000.0001) //       NORTH: Tile = 000017, Process = 000001, Comm = messages
(PID.TID 0000.0001) //                bi = 000001, bj = 000001
(PID.TID 0000.0001) 
(PID.TID 0000.0001)  INI_PARMS: opening model parameter file "data"
(PID.TID 0000.0001)  OPEN_COPY_DATA_FILE: opening file data
(PID.TID 0000.0001) // =======================================================
(PID.TID 0000.0001) // Parameter file "data"
(PID.TID 0000.0001) // =======================================================
(PID.TID 0000.0001) ># ====================
(PID.TID 0000.0001) ># | Model parameters |
(PID.TID 0000.0001) ># ====================
(PID.TID 0000.0001) >#
(PID.TID 0000.0001) ># Continuous equation parameters
(PID.TID 0000.0001) > &PARM01
(PID.TID 0000.0001) > tRef = 1117*-0.2,
(PID.TID 0000.0001) > sRef = 1117*34.2,
(PID.TID 0000.0001) > eosType='JMD95Z',
(PID.TID 0000.0001) > HeatCapacity_Cp = 3974.0,
(PID.TID 0000.0001) > rhoConst=1030.,
(PID.TID 0000.0001) > gravity=9.81,
(PID.TID 0000.0001) >#MY VALUES
(PID.TID 0000.0001) >#viscAr=1.E-3,
(PID.TID 0000.0001) >#viscAh= 2.E-1,
(PID.TID 0000.0001) >#CILAN VALUES
(PID.TID 0000.0001) > viscAh=10.,
(PID.TID 0000.0001) >#viscAh=0.3,
(PID.TID 0000.0001) > viscAr=4.E-2,
(PID.TID 0000.0001) >#viscAr=2.8E-4,
(PID.TID 0000.0001) >#Horizontal Bi-harmonic viscosity
(PID.TID 0000.0001) > viscA4=2.5,
(PID.TID 0000.0001) > no_slip_sides=.FALSE.,
(PID.TID 0000.0001) > no_slip_bottom=.FALSE.,
(PID.TID 0000.0001) >#MY VALUES
(PID.TID 0000.0001) >#diffKhT= 10.,
(PID.TID 0000.0001) >#diffKrT=2.74576,
(PID.TID 0000.0001) >#diffKhS= 10.,
(PID.TID 0000.0001) >#diffKrS=2.74576,
(PID.TID 0000.0001) >#CILAN VALUES
(PID.TID 0000.0001) > diffKhT= 0,
(PID.TID 0000.0001) >#diffKrT=2.8E-4,
(PID.TID 0000.0001) > diffKrT=2.8E-4,
(PID.TID 0000.0001) > diffKhS= 0,
(PID.TID 0000.0001) >#diffKrS=2.8E-4,
(PID.TID 0000.0001) > diffKrS=2.8E-4,
(PID.TID 0000.0001) > bottomDragQuadratic=2.5E-3,
(PID.TID 0000.0001) > staggerTimestep = .TRUE.,
(PID.TID 0000.0001) >#tempAdvScheme=33,
(PID.TID 0000.0001) >#saltAdvScheme=33,
(PID.TID 0000.0001) > tempAdvScheme=77,
(PID.TID 0000.0001) > saltAdvScheme=77,
(PID.TID 0000.0001) > vectorInvariantMomentum = .TRUE.,
(PID.TID 0000.0001) ># momImplVertAdv=.TRUE.,
(PID.TID 0000.0001) >#tempImplVertAdv=.TRUE.,
(PID.TID 0000.0001) >#saltImplVertAdv=.TRUE.,
(PID.TID 0000.0001) > implicitDiffusion = .TRUE.,
(PID.TID 0000.0001) > implicitViscosity = .TRUE.,
(PID.TID 0000.0001) > selectImplicitDrag = 2,
(PID.TID 0000.0001) > implicitFreeSurface=.TRUE.,
(PID.TID 0000.0001) > useRealFreshWaterFlux = .TRUE.,
(PID.TID 0000.0001) > exactConserv=.TRUE.,
(PID.TID 0000.0001) ># start NLFS (without rstar)
(PID.TID 0000.0001) > nonlinFreeSurf=4,
(PID.TID 0000.0001) > hFacInf=0.05,
(PID.TID 0000.0001) > hFacSup=2.0,
(PID.TID 0000.0001) ># end NLFS
(PID.TID 0000.0001) > hFacMin=0.10,
(PID.TID 0000.0001) >#integr_GeoPot = 1,
(PID.TID 0000.0001) > ivdc_kappa = 1.,
(PID.TID 0000.0001) > useCoriolis=.TRUE.,
(PID.TID 0000.0001) > useJamartWetPoints=.FALSE.,
(PID.TID 0000.0001) > selectBotDragQuadr=1,
(PID.TID 0000.0001) > selectCoriMap=2,
(PID.TID 0000.0001) >#bottomVisc_pCell=.TRUE.,
(PID.TID 0000.0001) >#-
(PID.TID 0000.0001) >#readBinaryPrec=64,
(PID.TID 0000.0001) >#writeBinaryPrec=64,
(PID.TID 0000.0001) > useSingleCpuIO=.TRUE.,
(PID.TID 0000.0001) >#globalFiles=.TRUE.,
(PID.TID 0000.0001) > debuglevel = 1,
(PID.TID 0000.0001) > plotLevel = 0,
(PID.TID 0000.0001) > &
(PID.TID 0000.0001) >
(PID.TID 0000.0001) ># Elliptic solver parameters
(PID.TID 0000.0001) > &PARM02
(PID.TID 0000.0001) > cg2dMaxIters=300,
(PID.TID 0000.0001) > cg2dTargetResidual=1.E-11,
(PID.TID 0000.0001) >#printResidualFreq=100,
(PID.TID 0000.0001) > &
(PID.TID 0000.0001) >
(PID.TID 0000.0001) >#Time stepping parameters
(PID.TID 0000.0001) > &PARM03
(PID.TID 0000.0001) > nIter0=756000,
(PID.TID 0000.0001) > nTimeSteps=20,
(PID.TID 0000.0001) >#nTimeSteps=2,
(PID.TID 0000.0001) >#startTime=0.,
(PID.TID 0000.0001) >#endTime=2592000.,
(PID.TID 0000.0001) >#endTime=3456000.,
(PID.TID 0000.0001) > deltaT=4,
(PID.TID 0000.0001) > forcing_In_AB  = .FALSE.,
(PID.TID 0000.0001) > abEps=0.1,
(PID.TID 0000.0001) > pChkptFreq= 43200.,
(PID.TID 0000.0001) > chkptFreq = 43200.,
(PID.TID 0000.0001) > dumpFreq =  43200.,
(PID.TID 0000.0001) ># monitorFreq= 7200.,
(PID.TID 0000.0001) >#monitorSelect=1,
(PID.TID 0000.0001) >#monitorFreq=3600.,
(PID.TID 0000.0001) >#monitorFreq=1200.0,
(PID.TID 0000.0001) > monitorFreq=4,
(PID.TID 0000.0001) >#dumpFreq = 10800.0,
(PID.TID 0000.0001) > dumpFreq = 4.0,
(PID.TID 0000.0001) >#dumpFreq=400.0,
(PID.TID 0000.0001) >#- for testing purpose:
(PID.TID 0000.0001) >#nTimeSteps=20,
(PID.TID 0000.0001) >#dumpFreq = 1200.,
(PID.TID 0000.0001) >#monitorFreq=1.,
(PID.TID 0000.0001) >#periodicExternalForcing=.TRUE.,
(PID.TID 0000.0001) >#externForcingPeriod=43200.,
(PID.TID 0000.0001) >#externForcingCycle=31104000,
(PID.TID 0000.0001) > &
(PID.TID 0000.0001) >
(PID.TID 0000.0001) ># Gridding parameters
(PID.TID 0000.0001) > &PARM04
(PID.TID 0000.0001) > usingCartesianGrid=.FALSE.,
(PID.TID 0000.0001) > usingSphericalPolarGrid=.TRUE.,
(PID.TID 0000.0001) > delR=1117*1.00074,
(PID.TID 0000.0001) >#delX=1*.125,
(PID.TID 0000.0001) > delXFile='delx_spacing.bin',
(PID.TID 0000.0001) > delYFile='dely_spacing.bin',
(PID.TID 0000.0001) >#delX=1632*0.01,
(PID.TID 0000.0001) >#delY=368*0.01,
(PID.TID 0000.0001) > xgOrigin = -62.6,
(PID.TID 0000.0001) > ygOrigin = 80.45,
(PID.TID 0000.0001) > pCellMix_select=20,
(PID.TID 0000.0001) > pcellMix_delR = 10.,
(PID.TID 0000.0001) >#interViscAr_pCell = .TRUE.,
(PID.TID 0000.0001) >#interDiffKr_pCell = .TRUE.,
(PID.TID 0000.0001) > pCellMix_viscAr = 1117*1.E-3,
(PID.TID 0000.0001) > pCellMix_diffKr = 1117*1.E-4,
(PID.TID 0000.0001) ># current default: diffKzT=5.E-5, viscAz=1.E-3,
(PID.TID 0000.0001) > &
(PID.TID 0000.0001) >
(PID.TID 0000.0001) ># Input datasets
(PID.TID 0000.0001) > &PARM05
(PID.TID 0000.0001) > bathyFile='bathy_flat.bin',
(PID.TID 0000.0001) > hydrogThetaFile='temp_ini.bin',	
(PID.TID 0000.0001) > hydrogSaltFile ='salt_ini.bin',
(PID.TID 0000.0001) ># pSurfInitFile ='etai_ini.bin'
(PID.TID 0000.0001) > &
(PID.TID 0000.0001) 
(PID.TID 0000.0001)  INI_PARMS ; starts to read PARM01
(PID.TID 0000.0001)  INI_PARMS ; read PARM01 : OK
(PID.TID 0000.0001)  INI_PARMS ; starts to read PARM02
(PID.TID 0000.0001)  INI_PARMS ; read PARM02 : OK
(PID.TID 0000.0001)  INI_PARMS ; starts to read PARM03
(PID.TID 0000.0001)  INI_PARMS ; read PARM03 : OK
(PID.TID 0000.0001)  INI_PARMS ; starts to read PARM04
(PID.TID 0000.0001)  INI_PARMS ; read PARM04 : OK
(PID.TID 0000.0001)  INI_PARMS ; starts to read PARM05
(PID.TID 0000.0001)  INI_PARMS ; read PARM05 : OK
(PID.TID 0000.0001)  INI_PARMS: finished reading file "data"
(PID.TID 0000.0001)  PACKAGES_BOOT: opening data.pkg
(PID.TID 0000.0001)  OPEN_COPY_DATA_FILE: opening file data.pkg
(PID.TID 0000.0001) // =======================================================
(PID.TID 0000.0001) // Parameter file "data.pkg"
(PID.TID 0000.0001) // =======================================================
(PID.TID 0000.0001) ># Packages (lines beginning "#" are comments)
(PID.TID 0000.0001) > &PACKAGES
(PID.TID 0000.0001) > useOBCS=.TRUE.,
(PID.TID 0000.0001) > useShelfIce=.TRUE.,
(PID.TID 0000.0001) > useDiagnostics = .TRUE.,
(PID.TID 0000.0001) > &
(PID.TID 0000.0001) 
(PID.TID 0000.0001)  PACKAGES_BOOT: finished reading data.pkg
(PID.TID 0000.0001)  PACKAGES_BOOT: On/Off package Summary
 --------  pkgs with a standard "usePKG" On/Off switch in "data.pkg":  --------
 pkg/obcs                 compiled   and   used ( useOBCS                  = T )
 pkg/shelfice             compiled   and   used ( useShelfIce              = T )
 pkg/diagnostics          compiled   and   used ( useDiagnostics           = T )
 -------- pkgs without standard "usePKG" On/Off switch in "data.pkg":  --------
 pkg/generic_advdiff      compiled   and   used ( useGAD                   = T )
 pkg/mom_common           compiled   and   used ( momStepping              = T )
 pkg/mom_vecinv           compiled   and   used ( +vectorInvariantMomentum = T )
 pkg/mom_fluxform         compiled but not used ( & not vectorInvariantMom = F )
 pkg/monitor              compiled   and   used ( monitorFreq > 0.         = T )
 pkg/debug                compiled but not used ( debugMode                = F )
 pkg/rw                   compiled   and   used
 pkg/mdsio                compiled   and   used
(PID.TID 0000.0001)  PACKAGES_BOOT: End of package Summary
(PID.TID 0000.0001) 
(PID.TID 0000.0001)  OBCS_READPARMS: opening data.obcs
(PID.TID 0000.0001)  OPEN_COPY_DATA_FILE: opening file data.obcs
(PID.TID 0000.0001) // =======================================================
(PID.TID 0000.0001) // Parameter file "data.obcs"
(PID.TID 0000.0001) // =======================================================
(PID.TID 0000.0001) ># Open-boundaries
(PID.TID 0000.0001) > &OBCS_PARM01
(PID.TID 0000.0001) > OB_Jnorth(13:145)=133*240,
(PID.TID 0000.0001) > useOBCSprescribe=.TRUE.,
(PID.TID 0000.0001) >#OBWuFile='uVel_obc.bin',
(PID.TID 0000.0001) >#OBNvFile='vVel_obc.bin',
(PID.TID 0000.0001) > OBNtFile='temp_obc.bin',
(PID.TID 0000.0001) > OBNsFile='salt_obc.bin',
(PID.TID 0000.0001) > OBCS_u1_adv_T=1,
(PID.TID 0000.0001) > OBCS_u1_adv_S=1,
(PID.TID 0000.0001) >#--
(PID.TID 0000.0001) > useOBCSbalance=.TRUE.,
(PID.TID 0000.0001) > useOBCSsponge=.TRUE.,
(PID.TID 0000.0001) > useLinearSponge = .TRUE.,
(PID.TID 0000.0001) >#- default is =T for these specific switches:
(PID.TID 0000.0001) > OBCSsponge_VatNS=.FALSE.,
(PID.TID 0000.0001) > OBCSsponge_UatNS=.FALSE.,
(PID.TID 0000.0001) >#--
(PID.TID 0000.0001) > OBCSprintDiags = .FALSE.,
(PID.TID 0000.0001) > &
(PID.TID 0000.0001) >
(PID.TID 0000.0001) ># Orlanski parameters (skipped with #undef ALLOW_ORLANSKI)
(PID.TID 0000.0001) >#&OBCS_PARM02
(PID.TID 0000.0001) >#Cmax=0.45,
(PID.TID 0000.0001) >#cVelTimeScale=1000.,
(PID.TID 0000.0001) >#&
(PID.TID 0000.0001) >
(PID.TID 0000.0001) ># Sponge layer parameters
(PID.TID 0000.0001) > &OBCS_PARM03
(PID.TID 0000.0001) > spongeThickness = 20,
(PID.TID 0000.0001) > Vrelaxobcsbound = 864000.,
(PID.TID 0000.0001) > Urelaxobcsbound = 864000.,
(PID.TID 0000.0001) > &
(PID.TID 0000.0001) 
(PID.TID 0000.0001)  OBCS_READPARMS: finished reading data.obcs
(PID.TID 0000.0001)  OB_indexUnset = /* unset OB index value (i.e. no OB) */
(PID.TID 0000.0001)                       0
(PID.TID 0000.0001)     ;
(PID.TID 0000.0001)  Northern OB global indices : OB_Jnorth =
(PID.TID 0000.0001)    12 @        0,                           /* I =  1: 12 */
(PID.TID 0000.0001)   133 @      240,                           /* I = 13:145 */
(PID.TID 0000.0001)   799 @        0                            /* I =146:944 */
(PID.TID 0000.0001)  Southern OB global indices : OB_Jsouth =
(PID.TID 0000.0001)   944 @        0                            /* I =  1:944 */
(PID.TID 0000.0001)  Eastern  OB global indices : OB_Ieast =
(PID.TID 0000.0001)   240 @        0                            /* J =  1:240 */
(PID.TID 0000.0001)  Western  OB global indices : OB_Iwest =
(PID.TID 0000.0001)   240 @        0                            /* J =  1:240 */
(PID.TID 0000.0001) 
(PID.TID 0000.0001)  SHELFICE_READPARMS: opening data.shelfice
(PID.TID 0000.0001)  OPEN_COPY_DATA_FILE: opening file data.shelfice
(PID.TID 0000.0001) // =======================================================
(PID.TID 0000.0001) // Parameter file "data.shelfice"
(PID.TID 0000.0001) // =======================================================
(PID.TID 0000.0001) ># ===================================
(PID.TID 0000.0001) ># | Parameters for SHELFICE package |
(PID.TID 0000.0001) ># ===================================
(PID.TID 0000.0001) > &SHELFICE_PARM01
(PID.TID 0000.0001) > SHELFICEconserve = .TRUE.,
(PID.TID 0000.0001) > SHELFICEuseGammaFrict = .TRUE.,
(PID.TID 0000.0001) > SHELFICEDragQuadratic = 0.0015,
(PID.TID 0000.0001) > shiCdrag = 0.0015,
(PID.TID 0000.0001) > SHELFICEselectDragQuadr= 2,
(PID.TID 0000.0001) >#SHELFICEMassStepping = .TRUE.,
(PID.TID 0000.0001) >#usenonlinearDyntimestep = .TRUE.,
(PID.TID 0000.0001) >#--
(PID.TID 0000.0001) >#SHELFICEremeshFrequency = 600.0,
(PID.TID 0000.0001) > SHELFICEremeshFrequency = 8.,
(PID.TID 0000.0001) >#- need to satisfy: splitThrs > 1 + mergeThrs / Sdz
(PID.TID 0000.0001) >#       with: Sdz = min{ delR(k+1)/delR(k) }_[k=1:Nr-1]
(PID.TID 0000.0001) > SHELFICEsplitThreshold = 1.12,
(PID.TID 0000.0001) > SHELFICEmergeThreshold = 0.10,
(PID.TID 0000.0001) >#--
(PID.TID 0000.0001) > SHELFICEtopoFile='shelficeTopo.Lin.bin',
(PID.TID 0000.0001) >#SHELFICEmassFile='shelficeMass.Lin.bin',
(PID.TID 0000.0001) >#SHELFICEMassDynTendFile='shelfice_dMdt.r02.bin',
(PID.TID 0000.0001) > SHELFICEwriteState = .TRUE.,
(PID.TID 0000.0001) >#GL3Dfilename='GL_ini.bin',
(PID.TID 0000.0001) >#GZ3Dfilename='GZ_2D.bin',
(PID.TID 0000.0001) >#FZ3Dfilename='FZ_limit.bin',
(PID.TID 0000.0001) >#front3Dfilename='ice_front_2D.bin',
(PID.TID 0000.0001) >#Time_period = 43200.0,
(PID.TID 0000.0001) >#facm = 1.0,
(PID.TID 0000.0001) >#amp_t = 1.0,
(PID.TID 0000.0001) > &
(PID.TID 0000.0001) 
(PID.TID 0000.0001)  SHELFICE_READPARMS: finished reading data.shelfice
(PID.TID 0000.0001)  DIAGNOSTICS_READPARMS: opening data.diagnostics
(PID.TID 0000.0001)  OPEN_COPY_DATA_FILE: opening file data.diagnostics
(PID.TID 0000.0001) // =======================================================
(PID.TID 0000.0001) // Parameter file "data.diagnostics"
(PID.TID 0000.0001) // =======================================================
(PID.TID 0000.0001) ># Diagnostic Package Choices
(PID.TID 0000.0001) >#-----------------
(PID.TID 0000.0001) ># for each output-stream:
(PID.TID 0000.0001) >#  filename(n) : prefix of the output file name (only 8.c long) for outp.stream n
(PID.TID 0000.0001) >#  frequency(n):< 0 : write snap-shot output every |frequency| seconds
(PID.TID 0000.0001) >#               > 0 : write time-average output every frequency seconds
(PID.TID 0000.0001) >#  timePhase(n)     : write at time = timePhase + multiple of |frequency|
(PID.TID 0000.0001) >#  averagingFreq(n) : frequency (in s) for periodic averaging interval
(PID.TID 0000.0001) >#  averagingPhase(n): phase     (in s) for periodic averaging interval
(PID.TID 0000.0001) >#  repeatCycle(n)   : number of averaging intervals in 1 cycle
(PID.TID 0000.0001) >#  levels(:,n) : list of levels to write to file (Notes: declared as REAL)
(PID.TID 0000.0001) >#                 when this entry is missing, select all common levels of this list
(PID.TID 0000.0001) >#  fields(:,n) : list of diagnostics fields (8.c) (see "available_diagnostics.log"
(PID.TID 0000.0001) >#                 file for the list of all available diag. in this particular config)
(PID.TID 0000.0001) >#-----------------
(PID.TID 0000.0001) > &DIAGNOSTICS_LIST
(PID.TID 0000.0001) ># diag_mnc     = .FALSE.,
(PID.TID 0000.0001) >  dumpAtLast   = .TRUE.,
(PID.TID 0000.0001) >  fields(1:12,1) = 'ETAN    ','RSURF   ','oceTAUX ','oceTAUY ',
(PID.TID 0000.0001) >                   'oceQnet ','oceFWflx',
(PID.TID 0000.0001) >                   'SHIfwFlx','SHIhtFlx','SHIgammT','SHIgammS',
(PID.TID 0000.0001) >                   'SHI_mass','SHI_dmdt',
(PID.TID 0000.0001) >#                  'surForcT','surForcS','TFLUX   ','SFLUX   ','oceFreez',
(PID.TID 0000.0001) >#                  'TRELAX  ','SRELAX  ',
(PID.TID 0000.0001) >#  fields(1,1)='ETAN'
(PID.TID 0000.0001) >   filename(1) = 'surfDiag',
(PID.TID 0000.0001) ># frequency(1) =  2592000.,
(PID.TID 0000.0001) ># frequency(1) =  86400.,
(PID.TID 0000.0001) >  frequency(1) =  -3600.0,
(PID.TID 0000.0001) >#-
(PID.TID 0000.0001) >  fields(1:9,2) = 'RCENTER ','TOTVTEND',
(PID.TID 0000.0001) >                   'hFactorC','hFactorW','hFactorS','TOTSTEND',
(PID.TID 0000.0001) >                   'TOTTTEND','RCENTER ','momKE   ',
(PID.TID 0000.0001) >   filename(2) = 'dynDiag',
(PID.TID 0000.0001) >#  fileFlags(2) = '  h     ',
(PID.TID 0000.0001) ># frequency(2) =  2592000.,
(PID.TID 0000.0001) ># frequency(2) =  86400.,
(PID.TID 0000.0001) >  frequency(2) =  -3600.,
(PID.TID 0000.0001) >#-
(PID.TID 0000.0001) >  fields(1:7,3) =  'ETAN    ','RSURF   ',
(PID.TID 0000.0001) >                   'oceQnet ','oceFWflx',
(PID.TID 0000.0001) >                   'SHIfwFlx','SHIhtFlx','SHIuStar',
(PID.TID 0000.0001) >#  filename(3) = 'surfInst',
(PID.TID 0000.0001) ># frequency(3) =  -86400.,
(PID.TID 0000.0001) >  frequency(3) =  -86400.,
(PID.TID 0000.0001) >  timePhase(3) = 0.,
(PID.TID 0000.0001) >#-
(PID.TID 0000.0001) >  fields(1:8,4)  = 'UVEL    ','VVEL    ','WVEL    ',
(PID.TID 0000.0001) >                   'THETA   ','SALT    ',
(PID.TID 0000.0001) >                   'hFactorC','hFactorW','hFactorS',
(PID.TID 0000.0001) >  filename(4) = 'dynInst',
(PID.TID 0000.0001) ># frequency(4) =  -86400.,
(PID.TID 0000.0001) >  frequency(4) =  -86400.,
(PID.TID 0000.0001) >#  frequency(4) = -200.,
(PID.TID 0000.0001) >  timePhase(4) = 0.,
(PID.TID 0000.0001) > &
(PID.TID 0000.0001) >
(PID.TID 0000.0001) >#--------------------
(PID.TID 0000.0001) ># Parameter for Diagnostics of per level statistics:
(PID.TID 0000.0001) >#--------------------
(PID.TID 0000.0001) >#  diagSt_mnc (logical): write stat-diags to NetCDF files (default=diag_mnc)
(PID.TID 0000.0001) >#  diagSt_regMaskFile : file containing the region-mask to read-in
(PID.TID 0000.0001) >#  nSetRegMskFile   : number of region-mask sets within the region-mask file
(PID.TID 0000.0001) >#  set_regMask(i)   : region-mask set-index that identifies the region "i"
(PID.TID 0000.0001) >#  val_regMask(i)   : region "i" identifier value in the region mask
(PID.TID 0000.0001) >#--for each output-stream:
(PID.TID 0000.0001) >#  stat_fName(n) : prefix of the output file name (max 80c long) for outp.stream n
(PID.TID 0000.0001) >#  stat_freq(n):< 0 : write snap-shot output every |stat_freq| seconds
(PID.TID 0000.0001) >#               > 0 : write time-average output every stat_freq seconds
(PID.TID 0000.0001) >#  stat_phase(n)    : write at time = stat_phase + multiple of |stat_freq|
(PID.TID 0000.0001) >#  stat_region(:,n) : list of "regions" (default: 1 region only=global)
(PID.TID 0000.0001) >#  stat_fields(:,n) : list of selected diagnostics fields (8.c) in outp.stream n
(PID.TID 0000.0001) >#                (see "available_diagnostics.log" file for the full list of diags)
(PID.TID 0000.0001) >#--------------------
(PID.TID 0000.0001) > &DIAG_STATIS_PARMS
(PID.TID 0000.0001) >#- regional mask: =1 : under-ice ; =2 : open-ocean
(PID.TID 0000.0001) >  diagSt_regMaskFile='under_Ice_mask.bin',
(PID.TID 0000.0001) >  nSetRegMskFile=1,
(PID.TID 0000.0001) >  set_regMask(1:2)= 1,  1,
(PID.TID 0000.0001) >  val_regMask(1:2)= 1., 2.,
(PID.TID 0000.0001) >#---
(PID.TID 0000.0001) > stat_fields(1:6,1) = 'ETAN    ','THETA   ','SALT    ',
(PID.TID 0000.0001) >                      'UVEL    ','VVEL    ','WVEL    ',
(PID.TID 0000.0001) >    stat_fname(1) = 'dynStDiag',
(PID.TID 0000.0001) >     stat_freq(1) = 21600.,
(PID.TID 0000.0001) >     stat_freq(1) = 3600.,
(PID.TID 0000.0001) >#    stat_freq(1) = 1800.,
(PID.TID 0000.0001) >#-
(PID.TID 0000.0001) > stat_fields(1:2,2) = 'ETAN    ','RSURF   ',
(PID.TID 0000.0001) >   stat_region(1:3,2) = 0, 1, 2,
(PID.TID 0000.0001) >    stat_fname(2) = 'surfStDiag',
(PID.TID 0000.0001) >     stat_freq(2) = 10800.,
(PID.TID 0000.0001) >     stat_freq(2) = 1800.,
(PID.TID 0000.0001) >#    stat_freq(2) =  900.,
(PID.TID 0000.0001) > &
(PID.TID 0000.0001) >
(PID.TID 0000.0001) 
(PID.TID 0000.0001) S/R DIAGNOSTICS_READPARMS, read namelist "diagnostics_list": start
(PID.TID 0000.0001) S/R DIAGNOSTICS_READPARMS, read namelist "diagnostics_list": OK
(PID.TID 0000.0001) S/R DIAGNOSTICS_READPARMS, read namelist "DIAG_STATIS_PARMS": start
(PID.TID 0000.0001) S/R DIAGNOSTICS_READPARMS, read namelist "DIAG_STATIS_PARMS": OK
(PID.TID 0000.0001)  DIAGNOSTICS_READPARMS: global parameter summary:
(PID.TID 0000.0001)  dumpAtLast = /* always write time-ave diags at the end */
(PID.TID 0000.0001)                   T
(PID.TID 0000.0001)     ;
(PID.TID 0000.0001)  diag_mnc =   /* write NetCDF output files */
(PID.TID 0000.0001)                   F
(PID.TID 0000.0001)     ;
(PID.TID 0000.0001)  useMissingValue = /* put MissingValue where mask = 0 */
(PID.TID 0000.0001)                   F
(PID.TID 0000.0001)     ;
(PID.TID 0000.0001)  diagCG_maxIters = /* max number of iters in diag_cg2d */
(PID.TID 0000.0001)                     300
(PID.TID 0000.0001)     ;
(PID.TID 0000.0001)  diagCG_resTarget = /* residual target for diag_cg2d */
(PID.TID 0000.0001)                 9.999999999999999E-12
(PID.TID 0000.0001)     ;
(PID.TID 0000.0001)  diagCG_pcOffDFac = /* preconditioner off-diagonal factor */
(PID.TID 0000.0001)                 9.611687812379854E-01
(PID.TID 0000.0001)     ;
(PID.TID 0000.0001) -----------------------------------------------------
(PID.TID 0000.0001)  DIAGNOSTICS_READPARMS: active diagnostics summary:
(PID.TID 0000.0001) -----------------------------------------------------
(PID.TID 0000.0001) Creating Output Stream: surfDiag
(PID.TID 0000.0001) Output Frequency:      -3600.000000 ; Phase:        1800.000000
(PID.TID 0000.0001)  Averaging Freq.:          0.000000 , Phase:           0.000000 , Cycle:   1
(PID.TID 0000.0001)  missing value: -9.990000000000E+02
(PID.TID 0000.0001)  Levels:    will be set later
(PID.TID 0000.0001)  Fields:    ETAN     RSURF    oceTAUX  oceTAUY  oceQnet  oceFWflx SHIfwFlx SHIhtFlx SHIgammT SHIgammS
(PID.TID 0000.0001)  Fields:    SHI_mass SHI_dmdt
(PID.TID 0000.0001) Creating Output Stream: dynDiag
(PID.TID 0000.0001) Output Frequency:      -3600.000000 ; Phase:        1800.000000
(PID.TID 0000.0001)  Averaging Freq.:          0.000000 , Phase:           0.000000 , Cycle:   1
(PID.TID 0000.0001)  missing value: -9.990000000000E+02
(PID.TID 0000.0001)  Levels:    will be set later
(PID.TID 0000.0001)  Fields:    RCENTER  TOTVTEND hFactorC hFactorW hFactorS TOTSTEND TOTTTEND RCENTER  momKE
(PID.TID 0000.0001) Creating Output Stream: dynInst
(PID.TID 0000.0001) Output Frequency:     -86400.000000 ; Phase:           0.000000
(PID.TID 0000.0001)  Averaging Freq.:          0.000000 , Phase:           0.000000 , Cycle:   1
(PID.TID 0000.0001)  missing value: -9.990000000000E+02
(PID.TID 0000.0001)  Levels:    will be set later
(PID.TID 0000.0001)  Fields:    UVEL     VVEL     WVEL     THETA    SALT     hFactorC hFactorW hFactorS
(PID.TID 0000.0001) -----------------------------------------------------
(PID.TID 0000.0001)  DIAGNOSTICS_READPARMS: statistics diags. summary:
(PID.TID 0000.0001) Creating Stats. Output Stream: dynStDiag
(PID.TID 0000.0001) Output Frequency:       3600.000000 ; Phase:           0.000000
(PID.TID 0000.0001)  Regions:   0
(PID.TID 0000.0001)  Fields:    ETAN     THETA    SALT     UVEL     VVEL     WVEL
(PID.TID 0000.0001) Creating Stats. Output Stream: surfStDiag
(PID.TID 0000.0001) Output Frequency:       1800.000000 ; Phase:           0.000000
(PID.TID 0000.0001)  Regions:   0  1  2
(PID.TID 0000.0001)  Fields:    ETAN     RSURF
(PID.TID 0000.0001) -----------------------------------------------------
(PID.TID 0000.0001) 
(PID.TID 0000.0001) SET_PARMS: done
(PID.TID 0000.0001) S/R LOAD_GRID_SPACING: delX loaded from file: delx_spacing.bin
(PID.TID 0000.0001) S/R LOAD_GRID_SPACING: delY loaded from file: dely_spacing.bin
(PID.TID 0000.0001) Enter INI_VERTICAL_GRID: setInterFDr=    T ; setCenterDr=    F
(PID.TID 0000.0001) %MON XC_max                       =  -6.0075887892419E+01
(PID.TID 0000.0001) %MON XC_min                       =  -6.2595511669666E+01
(PID.TID 0000.0001) %MON XC_mean                      =  -6.0687989624278E+01
(PID.TID 0000.0001) %MON XC_sd                        =   6.0526012978985E-01
(PID.TID 0000.0001) %MON XG_max                       =  -6.0076336725464E+01
(PID.TID 0000.0001) %MON XG_min                       =  -6.2600000000000E+01
(PID.TID 0000.0001) %MON XG_mean                      =  -6.0689326785793E+01
(PID.TID 0000.0001) %MON XG_sd                        =   6.0669588859430E-01
(PID.TID 0000.0001) %MON DXC_max                      =   1.6555355749185E+02
(PID.TID 0000.0001) %MON DXC_min                      =   1.3891320530089E+01
(PID.TID 0000.0001) %MON DXC_mean                     =   4.8652647760139E+01
(PID.TID 0000.0001) %MON DXC_sd                       =   5.7353429847538E+01
(PID.TID 0000.0001) %MON DXF_max                      =   1.6555355749185E+02
(PID.TID 0000.0001) %MON DXF_min                      =   1.3765493709815E+01
(PID.TID 0000.0001) %MON DXF_mean                     =   4.8652647760139E+01
(PID.TID 0000.0001) %MON DXF_sd                       =   5.7403849708742E+01
(PID.TID 0000.0001) %MON DXG_max                      =   1.6557682983964E+02
(PID.TID 0000.0001) %MON DXG_min                      =   1.3766151516539E+01
(PID.TID 0000.0001) %MON DXG_mean                     =   4.8655216084077E+01
(PID.TID 0000.0001) %MON DXG_sd                       =   5.7406886149812E+01
(PID.TID 0000.0001) %MON DXV_max                      =   1.6557682983964E+02
(PID.TID 0000.0001) %MON DXV_min                      =   1.3891984349655E+01
(PID.TID 0000.0001) %MON DXV_mean                     =   4.8655216084077E+01
(PID.TID 0000.0001) %MON DXV_sd                       =   5.7356463626111E+01
(PID.TID 0000.0001) %MON YC_max                       =   8.0690370865969E+01
(PID.TID 0000.0001) %MON YC_min                       =   8.0451354850130E+01
(PID.TID 0000.0001) %MON YC_mean                      =   8.0582054472072E+01
(PID.TID 0000.0001) %MON YC_sd                        =   6.3978738528278E-02
(PID.TID 0000.0001) %MON YG_max                       =   8.0689922032924E+01
(PID.TID 0000.0001) %MON YG_min                       =   8.0450000000000E+01
(PID.TID 0000.0001) %MON YG_mean                      =   8.0581552764365E+01
(PID.TID 0000.0001) %MON YG_sd                        =   6.4070201798238E-02
(PID.TID 0000.0001) %MON DYC_max                      =   2.9634075110621E+02
(PID.TID 0000.0001) %MON DYC_min                      =   8.9727398199626E+01
(PID.TID 0000.0001) %MON DYC_mean                     =   1.1155719029098E+02
(PID.TID 0000.0001) %MON DYC_sd                       =   3.6192768205476E+01
(PID.TID 0000.0001) %MON DYF_max                      =   3.0125762848278E+02
(PID.TID 0000.0001) %MON DYF_min                      =   8.8238640898019E+01
(PID.TID 0000.0001) %MON DYF_mean                     =   1.1155719029098E+02
(PID.TID 0000.0001) %MON DYF_sd                       =   3.6793556934190E+01
(PID.TID 0000.0001) %MON DYG_max                      =   3.0125762848278E+02
(PID.TID 0000.0001) %MON DYG_min                      =   8.8238640898019E+01
(PID.TID 0000.0001) %MON DYG_mean                     =   1.1155719029098E+02
(PID.TID 0000.0001) %MON DYG_sd                       =   3.6793556934190E+01
(PID.TID 0000.0001) %MON DYU_max                      =   2.9634075110621E+02
(PID.TID 0000.0001) %MON DYU_min                      =   8.9727398199626E+01
(PID.TID 0000.0001) %MON DYU_mean                     =   1.1155719029098E+02
(PID.TID 0000.0001) %MON DYU_sd                       =   3.6192768205476E+01
(PID.TID 0000.0001) %MON RA_max                       =   4.9874272112175E+04
(PID.TID 0000.0001) %MON RA_min                       =   1.2380853929971E+03
(PID.TID 0000.0001) %MON RA_mean                      =   5.4342021968353E+03
(PID.TID 0000.0001) %MON RA_sd                        =   7.0085041913085E+03
(PID.TID 0000.0001) %MON RAW_max                      =   4.9874272112175E+04
(PID.TID 0000.0001) %MON RAW_min                      =   1.2494024115881E+03
(PID.TID 0000.0001) %MON RAW_mean                     =   5.4342021968353E+03
(PID.TID 0000.0001) %MON RAW_sd                       =   7.0027681826643E+03
(PID.TID 0000.0001) %MON RAS_max                      =   4.9053481559006E+04
(PID.TID 0000.0001) %MON RAS_min                      =   1.2590273371609E+03
(PID.TID 0000.0001) %MON RAS_mean                     =   5.4344585162411E+03
(PID.TID 0000.0001) %MON RAS_sd                       =   6.9905039013676E+03
(PID.TID 0000.0001) %MON RAZ_max                      =   4.9053481559006E+04
(PID.TID 0000.0001) %MON RAZ_min                      =   1.2705357806510E+03
(PID.TID 0000.0001) %MON RAZ_mean                     =   5.4344585162411E+03
(PID.TID 0000.0001) %MON RAZ_sd                       =   6.9847713393399E+03
(PID.TID 0000.0001) %MON AngleCS_max                  =   1.0000000000000E+00
(PID.TID 0000.0001) %MON AngleCS_min                  =   1.0000000000000E+00
(PID.TID 0000.0001) %MON AngleCS_mean                 =   1.0000000000000E+00
(PID.TID 0000.0001) %MON AngleCS_sd                   =   0.0000000000000E+00
(PID.TID 0000.0001) %MON AngleSN_max                  =   0.0000000000000E+00
(PID.TID 0000.0001) %MON AngleSN_min                  =   0.0000000000000E+00
(PID.TID 0000.0001) %MON AngleSN_mean                 =   0.0000000000000E+00
(PID.TID 0000.0001) %MON AngleSN_sd                   =   0.0000000000000E+00
(PID.TID 0000.0001)  nRecords =   1 ; filePrec =  64 ; fileIter =    756000
(PID.TID 0000.0001)     nDims =   2 , dims:
(PID.TID 0000.0001)    1: 944   1 944
(PID.TID 0000.0001)    2: 240   1 240
(PID.TID 0000.0001)     nFlds =   1 , nFl3D =   0 , fields:
(PID.TID 0000.0001)  >R_Shelfi<
(PID.TID 0000.0001) missingVal=  1.00000000000000E+00 ; nTimRec =   1 , timeList:
(PID.TID 0000.0001)   3.024000000000E+06
(PID.TID 0000.0001) READ_MFLDS_LEV_RS: read field: "R_Shelfi", #   1 in fldList, rec=   1
(PID.TID 0000.0001) READ_MFLDS_CHECK: - normal end ; reset MFLDS file-name: pickup_shelfice.0000756000
(PID.TID 0000.0001) GAD_INIT_FIXED: GAD_OlMinSize=  2  0  1
(PID.TID 0000.0001) 
(PID.TID 0000.0001) // ===================================
(PID.TID 0000.0001) // GAD parameters :
(PID.TID 0000.0001) // ===================================
(PID.TID 0000.0001) tempAdvScheme =   /* Temp. Horiz.Advection scheme selector */
(PID.TID 0000.0001)                      77
(PID.TID 0000.0001)     ;
(PID.TID 0000.0001) tempVertAdvScheme =   /* Temp. Vert. Advection scheme selector */
(PID.TID 0000.0001)                      77
(PID.TID 0000.0001)     ;
(PID.TID 0000.0001) tempMultiDimAdvec =   /* use Muti-Dim Advec method for Temp */
(PID.TID 0000.0001)                   T
(PID.TID 0000.0001)     ;
(PID.TID 0000.0001) tempSOM_Advection = /* use 2nd Order Moment Advection for Temp */
(PID.TID 0000.0001)                   F
(PID.TID 0000.0001)     ;
(PID.TID 0000.0001) AdamsBashforthGt = /* apply Adams-Bashforth extrapolation on Gt */
(PID.TID 0000.0001)                   F
(PID.TID 0000.0001)     ;
(PID.TID 0000.0001) AdamsBashforth_T = /* apply Adams-Bashforth extrapolation on Temp */
(PID.TID 0000.0001)                   F
(PID.TID 0000.0001)     ;
(PID.TID 0000.0001) saltAdvScheme =   /* Salt. Horiz.advection scheme selector */
(PID.TID 0000.0001)                      77
(PID.TID 0000.0001)     ;
(PID.TID 0000.0001) saltVertAdvScheme =   /* Salt. Vert. Advection scheme selector */
(PID.TID 0000.0001)                      77
(PID.TID 0000.0001)     ;
(PID.TID 0000.0001) saltMultiDimAdvec =   /* use Muti-Dim Advec method for Salt */
(PID.TID 0000.0001)                   T
(PID.TID 0000.0001)     ;
(PID.TID 0000.0001) saltSOM_Advection = /* use 2nd Order Moment Advection for Salt */
(PID.TID 0000.0001)                   F
(PID.TID 0000.0001)     ;
(PID.TID 0000.0001) AdamsBashforthGs = /* apply Adams-Bashforth extrapolation on Gs */
(PID.TID 0000.0001)                   F
(PID.TID 0000.0001)     ;
(PID.TID 0000.0001) AdamsBashforth_S = /* apply Adams-Bashforth extrapolation on Salt */
(PID.TID 0000.0001)                   F
(PID.TID 0000.0001)     ;
(PID.TID 0000.0001) // ===================================
(PID.TID 0000.0001) ------------------------------------------------------------
(PID.TID 0000.0001) DIAGNOSTICS_SET_LEVELS: done
(PID.TID 0000.0001)  Total Nb of available Diagnostics: ndiagt=   207
(PID.TID 0000.0001)  write list of available Diagnostics to file: available_diagnostics.log
(PID.TID 0000.0001) SETDIAG: Allocate  1 x  1 Levels for Diagnostic #    23 ETAN
(PID.TID 0000.0001) SETDIAG: Allocate  1 x  1 Levels for Diagnostic #    96 RSURF
(PID.TID 0000.0001) SETDIAG: Allocate  1 x  1 Levels for Diagnostic #    80 oceTAUX
(PID.TID 0000.0001) SETDIAG: Allocate  1 x  1 Levels for Diagnostic #    81 oceTAUY
(PID.TID 0000.0001) SETDIAG: Allocate  1 x  1 Levels for Diagnostic #    86 oceQnet
(PID.TID 0000.0001) SETDIAG: Allocate  1 x  1 Levels for Diagnostic #    84 oceFWflx
(PID.TID 0000.0001) SETDIAG: Allocate  1 x  1 Levels for Diagnostic #   194 SHIfwFlx
(PID.TID 0000.0001) SETDIAG: Allocate  1 x  1 Levels for Diagnostic #   195 SHIhtFlx
(PID.TID 0000.0001) SETDIAG: Allocate  1 x  1 Levels for Diagnostic #   200 SHIgammT
(PID.TID 0000.0001) SETDIAG: Allocate  1 x  1 Levels for Diagnostic #   201 SHIgammS
(PID.TID 0000.0001) SETDIAG: Allocate  1 x  1 Levels for Diagnostic #   202 SHI_mass
(PID.TID 0000.0001) SETDIAG: Allocate  1 x  1 Levels for Diagnostic #   203 SHI_dmdt
(PID.TID 0000.0001) SETDIAG: Allocate*** x  1 Levels for Diagnostic #    95 RCENTER
(PID.TID 0000.0001) SETDIAG: Allocate*** x  1 Levels for Diagnostic #   101 TOTVTEND
(PID.TID 0000.0001) SETDIAG: Allocate*** x  1 Levels for Diagnostic #    97 hFactorC
(PID.TID 0000.0001) SETDIAG: Allocate*** x  1 Levels for Diagnostic #    98 hFactorW
(PID.TID 0000.0001) SETDIAG: Allocate*** x  1 Levels for Diagnostic #    99 hFactorS
(PID.TID 0000.0001) SETDIAG: Allocate*** x  1 Levels for Diagnostic #   103 TOTSTEND
(PID.TID 0000.0001) SETDIAG: Allocate*** x  1 Levels for Diagnostic #   102 TOTTTEND
(PID.TID 0000.0001) - NOTE - SETDIAG:  Diagnostic  #    95 RCENTER  is already set
(PID.TID 0000.0001) SETDIAG: Allocate*** x  1 Levels for Diagnostic #   154 momKE
(PID.TID 0000.0001) SETDIAG: Allocate*** x  1 Levels for Diagnostic #    30 UVEL
(PID.TID 0000.0001) SETDIAG: Allocate*** x  1 Levels for Diagnostic #    31 VVEL
(PID.TID 0000.0001) SETDIAG: Allocate*** x  1 Levels for Diagnostic #    32 WVEL
(PID.TID 0000.0001) SETDIAG: Allocate*** x  1 Levels for Diagnostic #    26 THETA
(PID.TID 0000.0001) SETDIAG: Allocate*** x  1 Levels for Diagnostic #    27 SALT
(PID.TID 0000.0001) SETDIAG: Allocate*** x  1 Levels for Diagnostic #    97 hFactorC
(PID.TID 0000.0001) SETDIAG: Allocate*** x  1 Levels for Diagnostic #    98 hFactorW
(PID.TID 0000.0001) SETDIAG: Allocate*** x  1 Levels for Diagnostic #    99 hFactorS
(PID.TID 0000.0001)   space allocated for all diagnostics:   17884 levels
(PID.TID 0000.0001)   set mate pointer for diag #    80  oceTAUX  , Parms: UU      U1 , mate:    81
(PID.TID 0000.0001)   set mate pointer for diag #    81  oceTAUY  , Parms: VV      U1 , mate:    80
(PID.TID 0000.0001)   set mate pointer for diag #    98  hFactorW , Parms: SUr     MR , mate:    99
(PID.TID 0000.0001)   set mate pointer for diag #    99  hFactorS , Parms: SVr     MR , mate:    98
(PID.TID 0000.0001)   set mate pointer for diag #    30  UVEL     , Parms: UUR     MR , mate:    31
(PID.TID 0000.0001)   set mate pointer for diag #    31  VVEL     , Parms: VVR     MR , mate:    30
(PID.TID 0000.0001)   set mate pointer for diag #    98  hFactorW , Parms: SUr     MR , mate:    99
(PID.TID 0000.0001)   set mate pointer for diag #    99  hFactorS , Parms: SVr     MR , mate:    98
(PID.TID 0000.0001) DIAGNOSTICS_SET_POINTERS: Set levels for Outp.Stream: surfDiag
(PID.TID 0000.0001)  Levels:       1.
(PID.TID 0000.0001) DIAGNOSTICS_SET_POINTERS: Set levels for Outp.Stream: dynDiag
(PID.TID 0000.0001)  Levels:       1.   2.   3.   4.   5.   6.   7.   8.   9.  10.  11.  12.  13.  14.  15.  16.  17.  18.  19.  20.
(PID.TID 0000.0001)  Levels:      21.  22.  23.  24.  25.  26.  27.  28.  29.  30.  31.  32.  33.  34.  35.  36.  37.  38.  39.  40.
(PID.TID 0000.0001)  Levels:      41.  42.  43.  44.  45.  46.  47.  48.  49.  50.  51.  52.  53.  54.  55.  56.  57.  58.  59.  60.
(PID.TID 0000.0001)  Levels:      61.  62.  63.  64.  65.  66.  67.  68.  69.  70.  71.  72.  73.  74.  75.  76.  77.  78.  79.  80.
(PID.TID 0000.0001)  Levels:      81.  82.  83.  84.  85.  86.  87.  88.  89.  90.  91.  92.  93.  94.  95.  96.  97.  98.  99. 100.
(PID.TID 0000.0001)  Levels:     101. 102. 103. 104. 105. 106. 107. 108. 109. 110. 111. 112. 113. 114. 115. 116. 117. 118. 119. 120.
(PID.TID 0000.0001)  Levels:     121. 122. 123. 124. 125. 126. 127. 128. 129. 130. 131. 132. 133. 134. 135. 136. 137. 138. 139. 140.
(PID.TID 0000.0001)  Levels:     141. 142. 143. 144. 145. 146. 147. 148. 149. 150. 151. 152. 153. 154. 155. 156. 157. 158. 159. 160.
(PID.TID 0000.0001)  Levels:     161. 162. 163. 164. 165. 166. 167. 168. 169. 170. 171. 172. 173. 174. 175. 176. 177. 178. 179. 180.
(PID.TID 0000.0001)  Levels:     181. 182. 183. 184. 185. 186. 187. 188. 189. 190. 191. 192. 193. 194. 195. 196. 197. 198. 199. 200.
(PID.TID 0000.0001)  Levels:     201. 202. 203. 204. 205. 206. 207. 208. 209. 210. 211. 212. 213. 214. 215. 216. 217. 218. 219. 220.
(PID.TID 0000.0001)  Levels:     221. 222. 223. 224. 225. 226. 227. 228. 229. 230. 231. 232. 233. 234. 235. 236. 237. 238. 239. 240.
(PID.TID 0000.0001)  Levels:     241. 242. 243. 244. 245. 246. 247. 248. 249. 250. 251. 252. 253. 254. 255. 256. 257. 258. 259. 260.
(PID.TID 0000.0001)  Levels:     261. 262. 263. 264. 265. 266. 267. 268. 269. 270. 271. 272. 273. 274. 275. 276. 277. 278. 279. 280.
(PID.TID 0000.0001)  Levels:     281. 282. 283. 284. 285. 286. 287. 288. 289. 290. 291. 292. 293. 294. 295. 296. 297. 298. 299. 300.
(PID.TID 0000.0001)  Levels:     301. 302. 303. 304. 305. 306. 307. 308. 309. 310. 311. 312. 313. 314. 315. 316. 317. 318. 319. 320.
(PID.TID 0000.0001)  Levels:     321. 322. 323. 324. 325. 326. 327. 328. 329. 330. 331. 332. 333. 334. 335. 336. 337. 338. 339. 340.
(PID.TID 0000.0001)  Levels:     341. 342. 343. 344. 345. 346. 347. 348. 349. 350. 351. 352. 353. 354. 355. 356. 357. 358. 359. 360.
(PID.TID 0000.0001)  Levels:     361. 362. 363. 364. 365. 366. 367. 368. 369. 370. 371. 372. 373. 374. 375. 376. 377. 378. 379. 380.
(PID.TID 0000.0001)  Levels:     381. 382. 383. 384. 385. 386. 387. 388. 389. 390. 391. 392. 393. 394. 395. 396. 397. 398. 399. 400.
(PID.TID 0000.0001)  Levels:     401. 402. 403. 404. 405. 406. 407. 408. 409. 410. 411. 412. 413. 414. 415. 416. 417. 418. 419. 420.
(PID.TID 0000.0001)  Levels:     421. 422. 423. 424. 425. 426. 427. 428. 429. 430. 431. 432. 433. 434. 435. 436. 437. 438. 439. 440.
(PID.TID 0000.0001)  Levels:     441. 442. 443. 444. 445. 446. 447. 448. 449. 450. 451. 452. 453. 454. 455. 456. 457. 458. 459. 460.
(PID.TID 0000.0001)  Levels:     461. 462. 463. 464. 465. 466. 467. 468. 469. 470. 471. 472. 473. 474. 475. 476. 477. 478. 479. 480.
(PID.TID 0000.0001)  Levels:     481. 482. 483. 484. 485. 486. 487. 488. 489. 490. 491. 492. 493. 494. 495. 496. 497. 498. 499. 500.
(PID.TID 0000.0001)  Levels:     501. 502. 503. 504. 505. 506. 507. 508. 509. 510. 511. 512. 513. 514. 515. 516. 517. 518. 519. 520.
(PID.TID 0000.0001)  Levels:     521. 522. 523. 524. 525. 526. 527. 528. 529. 530. 531. 532. 533. 534. 535. 536. 537. 538. 539. 540.
(PID.TID 0000.0001)  Levels:     541. 542. 543. 544. 545. 546. 547. 548. 549. 550. 551. 552. 553. 554. 555. 556. 557. 558. 559. 560.
(PID.TID 0000.0001)  Levels:     561. 562. 563. 564. 565. 566. 567. 568. 569. 570. 571. 572. 573. 574. 575. 576. 577. 578. 579. 580.
(PID.TID 0000.0001)  Levels:     581. 582. 583. 584. 585. 586. 587. 588. 589. 590. 591. 592. 593. 594. 595. 596. 597. 598. 599. 600.
(PID.TID 0000.0001)  Levels:     601. 602. 603. 604. 605. 606. 607. 608. 609. 610. 611. 612. 613. 614. 615. 616. 617. 618. 619. 620.
(PID.TID 0000.0001)  Levels:     621. 622. 623. 624. 625. 626. 627. 628. 629. 630. 631. 632. 633. 634. 635. 636. 637. 638. 639. 640.
(PID.TID 0000.0001)  Levels:     641. 642. 643. 644. 645. 646. 647. 648. 649. 650. 651. 652. 653. 654. 655. 656. 657. 658. 659. 660.
(PID.TID 0000.0001)  Levels:     661. 662. 663. 664. 665. 666. 667. 668. 669. 670. 671. 672. 673. 674. 675. 676. 677. 678. 679. 680.
(PID.TID 0000.0001)  Levels:     681. 682. 683. 684. 685. 686. 687. 688. 689. 690. 691. 692. 693. 694. 695. 696. 697. 698. 699. 700.
(PID.TID 0000.0001)  Levels:     701. 702. 703. 704. 705. 706. 707. 708. 709. 710. 711. 712. 713. 714. 715. 716. 717. 718. 719. 720.
(PID.TID 0000.0001)  Levels:     721. 722. 723. 724. 725. 726. 727. 728. 729. 730. 731. 732. 733. 734. 735. 736. 737. 738. 739. 740.
(PID.TID 0000.0001)  Levels:     741. 742. 743. 744. 745. 746. 747. 748. 749. 750. 751. 752. 753. 754. 755. 756. 757. 758. 759. 760.
(PID.TID 0000.0001)  Levels:     761. 762. 763. 764. 765. 766. 767. 768. 769. 770. 771. 772. 773. 774. 775. 776. 777. 778. 779. 780.
(PID.TID 0000.0001)  Levels:     781. 782. 783. 784. 785. 786. 787. 788. 789. 790. 791. 792. 793. 794. 795. 796. 797. 798. 799. 800.
(PID.TID 0000.0001)  Levels:     801. 802. 803. 804. 805. 806. 807. 808. 809. 810. 811. 812. 813. 814. 815. 816. 817. 818. 819. 820.
(PID.TID 0000.0001)  Levels:     821. 822. 823. 824. 825. 826. 827. 828. 829. 830. 831. 832. 833. 834. 835. 836. 837. 838. 839. 840.
(PID.TID 0000.0001)  Levels:     841. 842. 843. 844. 845. 846. 847. 848. 849. 850. 851. 852. 853. 854. 855. 856. 857. 858. 859. 860.
(PID.TID 0000.0001)  Levels:     861. 862. 863. 864. 865. 866. 867. 868. 869. 870. 871. 872. 873. 874. 875. 876. 877. 878. 879. 880.
(PID.TID 0000.0001)  Levels:     881. 882. 883. 884. 885. 886. 887. 888. 889. 890. 891. 892. 893. 894. 895. 896. 897. 898. 899. 900.
(PID.TID 0000.0001)  Levels:     901. 902. 903. 904. 905. 906. 907. 908. 909. 910. 911. 912. 913. 914. 915. 916. 917. 918. 919. 920.
(PID.TID 0000.0001)  Levels:     921. 922. 923. 924. 925. 926. 927. 928. 929. 930. 931. 932. 933. 934. 935. 936. 937. 938. 939. 940.
(PID.TID 0000.0001)  Levels:     941. 942. 943. 944. 945. 946. 947. 948. 949. 950. 951. 952. 953. 954. 955. 956. 957. 958. 959. 960.
(PID.TID 0000.0001)  Levels:     961. 962. 963. 964. 965. 966. 967. 968. 969. 970. 971. 972. 973. 974. 975. 976. 977. 978. 979. 980.
(PID.TID 0000.0001)  Levels:     981. 982. 983. 984. 985. 986. 987. 988. 989. 990. 991. 992. 993. 994. 995. 996. 997. 998. 999.1000.
(PID.TID 0000.0001)  Levels:    1001.1002.1003.1004.1005.1006.1007.1008.1009.1010.1011.1012.1013.1014.1015.1016.1017.1018.1019.1020.
(PID.TID 0000.0001)  Levels:    1021.1022.1023.1024.1025.1026.1027.1028.1029.1030.1031.1032.1033.1034.1035.1036.1037.1038.1039.1040.
(PID.TID 0000.0001)  Levels:    1041.1042.1043.1044.1045.1046.1047.1048.1049.1050.1051.1052.1053.1054.1055.1056.1057.1058.1059.1060.
(PID.TID 0000.0001)  Levels:    1061.1062.1063.1064.1065.1066.1067.1068.1069.1070.1071.1072.1073.1074.1075.1076.1077.1078.1079.1080.
(PID.TID 0000.0001)  Levels:    1081.1082.1083.1084.1085.1086.1087.1088.1089.1090.1091.1092.1093.1094.1095.1096.1097.1098.1099.1100.
(PID.TID 0000.0001)  Levels:    1101.1102.1103.1104.1105.1106.1107.1108.1109.1110.1111.1112.1113.1114.1115.1116.1117.
(PID.TID 0000.0001) DIAGNOSTICS_SET_POINTERS: Set levels for Outp.Stream: dynInst
(PID.TID 0000.0001)  Levels:       1.   2.   3.   4.   5.   6.   7.   8.   9.  10.  11.  12.  13.  14.  15.  16.  17.  18.  19.  20.
(PID.TID 0000.0001)  Levels:      21.  22.  23.  24.  25.  26.  27.  28.  29.  30.  31.  32.  33.  34.  35.  36.  37.  38.  39.  40.
(PID.TID 0000.0001)  Levels:      41.  42.  43.  44.  45.  46.  47.  48.  49.  50.  51.  52.  53.  54.  55.  56.  57.  58.  59.  60.
(PID.TID 0000.0001)  Levels:      61.  62.  63.  64.  65.  66.  67.  68.  69.  70.  71.  72.  73.  74.  75.  76.  77.  78.  79.  80.
(PID.TID 0000.0001)  Levels:      81.  82.  83.  84.  85.  86.  87.  88.  89.  90.  91.  92.  93.  94.  95.  96.  97.  98.  99. 100.
(PID.TID 0000.0001)  Levels:     101. 102. 103. 104. 105. 106. 107. 108. 109. 110. 111. 112. 113. 114. 115. 116. 117. 118. 119. 120.
(PID.TID 0000.0001)  Levels:     121. 122. 123. 124. 125. 126. 127. 128. 129. 130. 131. 132. 133. 134. 135. 136. 137. 138. 139. 140.
(PID.TID 0000.0001)  Levels:     141. 142. 143. 144. 145. 146. 147. 148. 149. 150. 151. 152. 153. 154. 155. 156. 157. 158. 159. 160.
(PID.TID 0000.0001)  Levels:     161. 162. 163. 164. 165. 166. 167. 168. 169. 170. 171. 172. 173. 174. 175. 176. 177. 178. 179. 180.
(PID.TID 0000.0001)  Levels:     181. 182. 183. 184. 185. 186. 187. 188. 189. 190. 191. 192. 193. 194. 195. 196. 197. 198. 199. 200.
(PID.TID 0000.0001)  Levels:     201. 202. 203. 204. 205. 206. 207. 208. 209. 210. 211. 212. 213. 214. 215. 216. 217. 218. 219. 220.
(PID.TID 0000.0001)  Levels:     221. 222. 223. 224. 225. 226. 227. 228. 229. 230. 231. 232. 233. 234. 235. 236. 237. 238. 239. 240.
(PID.TID 0000.0001)  Levels:     241. 242. 243. 244. 245. 246. 247. 248. 249. 250. 251. 252. 253. 254. 255. 256. 257. 258. 259. 260.
(PID.TID 0000.0001)  Levels:     261. 262. 263. 264. 265. 266. 267. 268. 269. 270. 271. 272. 273. 274. 275. 276. 277. 278. 279. 280.
(PID.TID 0000.0001)  Levels:     281. 282. 283. 284. 285. 286. 287. 288. 289. 290. 291. 292. 293. 294. 295. 296. 297. 298. 299. 300.
(PID.TID 0000.0001)  Levels:     301. 302. 303. 304. 305. 306. 307. 308. 309. 310. 311. 312. 313. 314. 315. 316. 317. 318. 319. 320.
(PID.TID 0000.0001)  Levels:     321. 322. 323. 324. 325. 326. 327. 328. 329. 330. 331. 332. 333. 334. 335. 336. 337. 338. 339. 340.
(PID.TID 0000.0001)  Levels:     341. 342. 343. 344. 345. 346. 347. 348. 349. 350. 351. 352. 353. 354. 355. 356. 357. 358. 359. 360.
(PID.TID 0000.0001)  Levels:     361. 362. 363. 364. 365. 366. 367. 368. 369. 370. 371. 372. 373. 374. 375. 376. 377. 378. 379. 380.
(PID.TID 0000.0001)  Levels:     381. 382. 383. 384. 385. 386. 387. 388. 389. 390. 391. 392. 393. 394. 395. 396. 397. 398. 399. 400.
(PID.TID 0000.0001)  Levels:     401. 402. 403. 404. 405. 406. 407. 408. 409. 410. 411. 412. 413. 414. 415. 416. 417. 418. 419. 420.
(PID.TID 0000.0001)  Levels:     421. 422. 423. 424. 425. 426. 427. 428. 429. 430. 431. 432. 433. 434. 435. 436. 437. 438. 439. 440.
(PID.TID 0000.0001)  Levels:     441. 442. 443. 444. 445. 446. 447. 448. 449. 450. 451. 452. 453. 454. 455. 456. 457. 458. 459. 460.
(PID.TID 0000.0001)  Levels:     461. 462. 463. 464. 465. 466. 467. 468. 469. 470. 471. 472. 473. 474. 475. 476. 477. 478. 479. 480.
(PID.TID 0000.0001)  Levels:     481. 482. 483. 484. 485. 486. 487. 488. 489. 490. 491. 492. 493. 494. 495. 496. 497. 498. 499. 500.
(PID.TID 0000.0001)  Levels:     501. 502. 503. 504. 505. 506. 507. 508. 509. 510. 511. 512. 513. 514. 515. 516. 517. 518. 519. 520.
(PID.TID 0000.0001)  Levels:     521. 522. 523. 524. 525. 526. 527. 528. 529. 530. 531. 532. 533. 534. 535. 536. 537. 538. 539. 540.
(PID.TID 0000.0001)  Levels:     541. 542. 543. 544. 545. 546. 547. 548. 549. 550. 551. 552. 553. 554. 555. 556. 557. 558. 559. 560.
(PID.TID 0000.0001)  Levels:     561. 562. 563. 564. 565. 566. 567. 568. 569. 570. 571. 572. 573. 574. 575. 576. 577. 578. 579. 580.
(PID.TID 0000.0001)  Levels:     581. 582. 583. 584. 585. 586. 587. 588. 589. 590. 591. 592. 593. 594. 595. 596. 597. 598. 599. 600.
(PID.TID 0000.0001)  Levels:     601. 602. 603. 604. 605. 606. 607. 608. 609. 610. 611. 612. 613. 614. 615. 616. 617. 618. 619. 620.
(PID.TID 0000.0001)  Levels:     621. 622. 623. 624. 625. 626. 627. 628. 629. 630. 631. 632. 633. 634. 635. 636. 637. 638. 639. 640.
(PID.TID 0000.0001)  Levels:     641. 642. 643. 644. 645. 646. 647. 648. 649. 650. 651. 652. 653. 654. 655. 656. 657. 658. 659. 660.
(PID.TID 0000.0001)  Levels:     661. 662. 663. 664. 665. 666. 667. 668. 669. 670. 671. 672. 673. 674. 675. 676. 677. 678. 679. 680.
(PID.TID 0000.0001)  Levels:     681. 682. 683. 684. 685. 686. 687. 688. 689. 690. 691. 692. 693. 694. 695. 696. 697. 698. 699. 700.
(PID.TID 0000.0001)  Levels:     701. 702. 703. 704. 705. 706. 707. 708. 709. 710. 711. 712. 713. 714. 715. 716. 717. 718. 719. 720.
(PID.TID 0000.0001)  Levels:     721. 722. 723. 724. 725. 726. 727. 728. 729. 730. 731. 732. 733. 734. 735. 736. 737. 738. 739. 740.
(PID.TID 0000.0001)  Levels:     741. 742. 743. 744. 745. 746. 747. 748. 749. 750. 751. 752. 753. 754. 755. 756. 757. 758. 759. 760.
(PID.TID 0000.0001)  Levels:     761. 762. 763. 764. 765. 766. 767. 768. 769. 770. 771. 772. 773. 774. 775. 776. 777. 778. 779. 780.
(PID.TID 0000.0001)  Levels:     781. 782. 783. 784. 785. 786. 787. 788. 789. 790. 791. 792. 793. 794. 795. 796. 797. 798. 799. 800.
(PID.TID 0000.0001)  Levels:     801. 802. 803. 804. 805. 806. 807. 808. 809. 810. 811. 812. 813. 814. 815. 816. 817. 818. 819. 820.
(PID.TID 0000.0001)  Levels:     821. 822. 823. 824. 825. 826. 827. 828. 829. 830. 831. 832. 833. 834. 835. 836. 837. 838. 839. 840.
(PID.TID 0000.0001)  Levels:     841. 842. 843. 844. 845. 846. 847. 848. 849. 850. 851. 852. 853. 854. 855. 856. 857. 858. 859. 860.
(PID.TID 0000.0001)  Levels:     861. 862. 863. 864. 865. 866. 867. 868. 869. 870. 871. 872. 873. 874. 875. 876. 877. 878. 879. 880.
(PID.TID 0000.0001)  Levels:     881. 882. 883. 884. 885. 886. 887. 888. 889. 890. 891. 892. 893. 894. 895. 896. 897. 898. 899. 900.
(PID.TID 0000.0001)  Levels:     901. 902. 903. 904. 905. 906. 907. 908. 909. 910. 911. 912. 913. 914. 915. 916. 917. 918. 919. 920.
(PID.TID 0000.0001)  Levels:     921. 922. 923. 924. 925. 926. 927. 928. 929. 930. 931. 932. 933. 934. 935. 936. 937. 938. 939. 940.
(PID.TID 0000.0001)  Levels:     941. 942. 943. 944. 945. 946. 947. 948. 949. 950. 951. 952. 953. 954. 955. 956. 957. 958. 959. 960.
(PID.TID 0000.0001)  Levels:     961. 962. 963. 964. 965. 966. 967. 968. 969. 970. 971. 972. 973. 974. 975. 976. 977. 978. 979. 980.
(PID.TID 0000.0001)  Levels:     981. 982. 983. 984. 985. 986. 987. 988. 989. 990. 991. 992. 993. 994. 995. 996. 997. 998. 999.1000.
(PID.TID 0000.0001)  Levels:    1001.1002.1003.1004.1005.1006.1007.1008.1009.1010.1011.1012.1013.1014.1015.1016.1017.1018.1019.1020.
(PID.TID 0000.0001)  Levels:    1021.1022.1023.1024.1025.1026.1027.1028.1029.1030.1031.1032.1033.1034.1035.1036.1037.1038.1039.1040.
(PID.TID 0000.0001)  Levels:    1041.1042.1043.1044.1045.1046.1047.1048.1049.1050.1051.1052.1053.1054.1055.1056.1057.1058.1059.1060.
(PID.TID 0000.0001)  Levels:    1061.1062.1063.1064.1065.1066.1067.1068.1069.1070.1071.1072.1073.1074.1075.1076.1077.1078.1079.1080.
(PID.TID 0000.0001)  Levels:    1081.1082.1083.1084.1085.1086.1087.1088.1089.1090.1091.1092.1093.1094.1095.1096.1097.1098.1099.1100.
(PID.TID 0000.0001)  Levels:    1101.1102.1103.1104.1105.1106.1107.1108.1109.1110.1111.1112.1113.1114.1115.1116.1117.
(PID.TID 0000.0001) DIAGNOSTICS_SET_POINTERS: done
(PID.TID 0000.0001) ------------------------------------------------------------
 DIAGSTATS_SET_REGIONS: start reading region-mask file: under_Ice_mask.bin
 DIAGSTATS_SET_REGIONS:  reading set k=  1
 DIAGSTATS_SET_REGIONS:          set k=  1 <= done
(PID.TID 0000.0001) DIAGSTATS_SET_REGIONS: define   2 regions:  1  2
(PID.TID 0000.0001) ------------------------------------------------------------
(PID.TID 0000.0001) SETDIAG: Allocate  1 Levels for Stats-Diag #    23 ETAN
(PID.TID 0000.0001) SETDIAG: Allocate*** Levels for Stats-Diag #    26 THETA
(PID.TID 0000.0001) SETDIAG: Allocate*** Levels for Stats-Diag #    27 SALT
(PID.TID 0000.0001) SETDIAG: Allocate*** Levels for Stats-Diag #    30 UVEL
(PID.TID 0000.0001) SETDIAG: Allocate*** Levels for Stats-Diag #    31 VVEL
(PID.TID 0000.0001) SETDIAG: Allocate*** Levels for Stats-Diag #    32 WVEL
(PID.TID 0000.0001) SETDIAG: Allocate  1 Levels for Stats-Diag #    23 ETAN
(PID.TID 0000.0001) SETDIAG: Allocate  1 Levels for Stats-Diag #    96 RSURF
(PID.TID 0000.0001)   space allocated for all stats-diags:    5588 levels
(PID.TID 0000.0001) DIAGSTATS_SET_POINTERS: done
(PID.TID 0000.0001) ------------------------------------------------------------
(PID.TID 0000.0001) DIAGSTATS_INI_IO: open file: dynStDiag.0000756000.txt , unit=     9
(PID.TID 0000.0001) DIAGSTATS_INI_IO: open file: surfStDiag.0000756000.txt , unit=    10
(PID.TID 0000.0001) Empty tile bi,bj=     1     1
(PID.TID 0000.0001) 
(PID.TID 0000.0001) %MON fCori_max                    =   1.4392151255922E-04
(PID.TID 0000.0001) %MON fCori_min                    =   1.4382184007715E-04
(PID.TID 0000.0001) %MON fCori_mean                   =   1.4387656387732E-04
(PID.TID 0000.0001) %MON fCori_sd                     =   2.6656970659746E-08
(PID.TID 0000.0001) %MON fCoriG_max                   =   1.4392132773722E-04
(PID.TID 0000.0001) %MON fCoriG_min                   =   1.4382126795327E-04
(PID.TID 0000.0001) %MON fCoriG_mean                  =   1.4387635464325E-04
(PID.TID 0000.0001) %MON fCoriG_sd                    =   2.6696918784112E-08
(PID.TID 0000.0001) %MON fCoriCos_max                 =   2.4193066602670E-05
(PID.TID 0000.0001) %MON fCoriCos_min                 =   2.3592888281912E-05
(PID.TID 0000.0001) %MON fCoriCos_mean                =   2.3864911490090E-05
(PID.TID 0000.0001) %MON fCoriCos_sd                  =   1.6065693072522E-07
(PID.TID 0000.0001) INI_CG2D: CG2D normalisation factor =  1.8454497524423839E-04
(PID.TID 0000.0001) 
(PID.TID 0000.0001) // =======================================================
(PID.TID 0000.0001) // Model configuration
(PID.TID 0000.0001) // =======================================================
(PID.TID 0000.0001) //
(PID.TID 0000.0001) // "Physical" paramters ( PARM01 in namelist )
(PID.TID 0000.0001) //
(PID.TID 0000.0001) buoyancyRelation = /* Type of relation to get Buoyancy */
(PID.TID 0000.0001)               'OCEANIC'
(PID.TID 0000.0001)     ;
(PID.TID 0000.0001) fluidIsAir   =  /* fluid major constituent is Air */
(PID.TID 0000.0001)                   F
(PID.TID 0000.0001)     ;
(PID.TID 0000.0001) fluidIsWater =  /* fluid major constituent is Water */
(PID.TID 0000.0001)                   T
(PID.TID 0000.0001)     ;
(PID.TID 0000.0001) usingPCoords =  /* use p (or p*) vertical coordinate */
(PID.TID 0000.0001)                   F
(PID.TID 0000.0001)     ;
(PID.TID 0000.0001) usingZCoords =  /* use z (or z*) vertical coordinate */
(PID.TID 0000.0001)                   T
(PID.TID 0000.0001)     ;
(PID.TID 0000.0001) tRef =   /* Reference temperature profile ( oC or K ) */
(PID.TID 0000.0001)  1117 @ -2.000000000000000E-01              /* K =   1:1117 */
(PID.TID 0000.0001)     ;
(PID.TID 0000.0001) sRef =   /* Reference salinity profile ( g/kg ) */
(PID.TID 0000.0001)  1117 @  3.420000000000000E+01              /* K =   1:1117 */
(PID.TID 0000.0001)     ;
(PID.TID 0000.0001) useStrainTensionVisc= /* Use StrainTension Form of Viscous Operator */
(PID.TID 0000.0001)                   F
(PID.TID 0000.0001)     ;
(PID.TID 0000.0001) useVariableVisc = /* Use variable horizontal viscosity */
(PID.TID 0000.0001)                   F
(PID.TID 0000.0001)     ;
(PID.TID 0000.0001) useHarmonicVisc = /* Use harmonic horizontal viscosity */
(PID.TID 0000.0001)                   T
(PID.TID 0000.0001)     ;
(PID.TID 0000.0001) useBiharmonicVisc= /* Use biharmonic horiz.  viscosity */
(PID.TID 0000.0001)                   T
(PID.TID 0000.0001)     ;
(PID.TID 0000.0001) useSmag3D = /* Use isotropic 3-D Smagorinsky viscosity */
(PID.TID 0000.0001)                   F
(PID.TID 0000.0001)     ;
(PID.TID 0000.0001) viscAh  =   /* Lateral harmonic viscosity ( m^2/s ) */
(PID.TID 0000.0001)                 1.000000000000000E+01
(PID.TID 0000.0001)     ;
(PID.TID 0000.0001) viscA4  =   /* Lateral biharmonic viscosity ( m^4/s ) */
(PID.TID 0000.0001)                 2.500000000000000E+00
(PID.TID 0000.0001)     ;
(PID.TID 0000.0001) no_slip_sides =  /* Viscous BCs: No-slip sides */
(PID.TID 0000.0001)                   F
(PID.TID 0000.0001)     ;
(PID.TID 0000.0001) sideDragFactor = /* side-drag scaling factor (non-dim) */
(PID.TID 0000.0001)                 2.000000000000000E+00
(PID.TID 0000.0001)     ;
(PID.TID 0000.0001) viscArNr = /* vertical profile of vertical viscosity ( m^2/s )*/
(PID.TID 0000.0001)  1117 @  4.000000000000000E-02              /* K =   1:1117 */
(PID.TID 0000.0001)     ;
(PID.TID 0000.0001) no_slip_bottom =  /* Viscous BCs: No-slip bottom */
(PID.TID 0000.0001)                   F
(PID.TID 0000.0001)     ;
(PID.TID 0000.0001) bottomVisc_pCell = /* Partial-cell in bottom Visc. BC */
(PID.TID 0000.0001)                   F
(PID.TID 0000.0001)     ;
(PID.TID 0000.0001) bottomDragLinear = /* linear bottom-drag coefficient ( m/s ) */
(PID.TID 0000.0001)                 0.000000000000000E+00
(PID.TID 0000.0001)     ;
(PID.TID 0000.0001) bottomDragQuadratic = /* quadratic bottom-drag coefficient (-) */
(PID.TID 0000.0001)                 2.500000000000000E-03
(PID.TID 0000.0001)     ;
(PID.TID 0000.0001) selectBotDragQuadr = /* select quadratic bottom drag options */
(PID.TID 0000.0001)                       1
(PID.TID 0000.0001)     ;
(PID.TID 0000.0001) diffKhT =   /* Laplacian diffusion of heat laterally ( m^2/s ) */
(PID.TID 0000.0001)                 0.000000000000000E+00
(PID.TID 0000.0001)     ;
(PID.TID 0000.0001) diffK4T =   /* Biharmonic diffusion of heat laterally ( m^4/s ) */
(PID.TID 0000.0001)                 0.000000000000000E+00
(PID.TID 0000.0001)     ;
(PID.TID 0000.0001) diffKhS =   /* Laplacian diffusion of salt laterally ( m^2/s ) */
(PID.TID 0000.0001)                 0.000000000000000E+00
(PID.TID 0000.0001)     ;
(PID.TID 0000.0001) diffK4S =   /* Biharmonic diffusion of salt laterally ( m^4/s ) */
(PID.TID 0000.0001)                 0.000000000000000E+00
(PID.TID 0000.0001)     ;
(PID.TID 0000.0001) diffKrNrT = /* vertical profile of vertical diffusion of Temp ( m^2/s )*/
(PID.TID 0000.0001)  1117 @  2.800000000000000E-04              /* K =   1:1117 */
(PID.TID 0000.0001)     ;
(PID.TID 0000.0001) diffKrNrS = /* vertical profile of vertical diffusion of Salt ( m^2/s )*/
(PID.TID 0000.0001)  1117 @  2.800000000000000E-04              /* K =   1:1117 */
(PID.TID 0000.0001)     ;
(PID.TID 0000.0001) diffKrBL79surf = /* Surface diffusion for Bryan and Lewis 79 ( m^2/s ) */
(PID.TID 0000.0001)                 0.000000000000000E+00
(PID.TID 0000.0001)     ;
(PID.TID 0000.0001) diffKrBL79deep = /* Deep diffusion for Bryan and Lewis 1979 ( m^2/s ) */
(PID.TID 0000.0001)                 0.000000000000000E+00
(PID.TID 0000.0001)     ;
(PID.TID 0000.0001) diffKrBL79scl = /* Depth scale for Bryan and Lewis 1979 ( m ) */
(PID.TID 0000.0001)                 2.000000000000000E+02
(PID.TID 0000.0001)     ;
(PID.TID 0000.0001) diffKrBL79Ho = /* Turning depth for Bryan and Lewis 1979 ( m ) */
(PID.TID 0000.0001)                -2.000000000000000E+03
(PID.TID 0000.0001)     ;
(PID.TID 0000.0001) ivdc_kappa = /* Implicit Vertical Diffusivity for Convection ( m^2/s) */
(PID.TID 0000.0001)                 1.000000000000000E+00
(PID.TID 0000.0001)     ;
(PID.TID 0000.0001) hMixCriteria=  /* Criteria for mixed-layer diagnostic */
(PID.TID 0000.0001)                -8.000000000000000E-01
(PID.TID 0000.0001)     ;
(PID.TID 0000.0001) dRhoSmall =  /* Parameter for mixed-layer diagnostic */
(PID.TID 0000.0001)                 1.000000000000000E-06
(PID.TID 0000.0001)     ;
(PID.TID 0000.0001) hMixSmooth=  /* Smoothing parameter for mixed-layer diagnostic */
(PID.TID 0000.0001)                 0.000000000000000E+00
(PID.TID 0000.0001)     ;
(PID.TID 0000.0001) eosType =  /* Type of Equation of State */
(PID.TID 0000.0001)               'JMD95Z'
(PID.TID 0000.0001)     ;
(PID.TID 0000.0001) eosRefP0 = /* Reference atmospheric pressure for EOS ( Pa ) */
(PID.TID 0000.0001)                 1.013250000000000E+05
(PID.TID 0000.0001)     ;
(PID.TID 0000.0001) selectP_inEOS_Zc = /* select pressure to use in EOS (0,1,2,3) */
(PID.TID 0000.0001)                       0
(PID.TID 0000.0001)     0= -g*rhoConst*z ; 1= pRef (from tRef,sRef); 2= Hyd P ; 3= Hyd+NH P
(PID.TID 0000.0001)     ;
(PID.TID 0000.0001) surf_pRef = /* Surface reference pressure ( Pa ) */
(PID.TID 0000.0001)                 1.013250000000000E+05
(PID.TID 0000.0001)     ;
(PID.TID 0000.0001) HeatCapacity_Cp =  /* Specific heat capacity ( J/kg/K ) */
(PID.TID 0000.0001)                 3.974000000000000E+03
(PID.TID 0000.0001)     ;
(PID.TID 0000.0001) celsius2K = /* 0 degree Celsius converted to Kelvin ( K ) */
(PID.TID 0000.0001)                 2.731500000000000E+02
(PID.TID 0000.0001)     ;
(PID.TID 0000.0001) rhoConst  = /* Reference density (Boussinesq)  ( kg/m^3 ) */
(PID.TID 0000.0001)                 1.030000000000000E+03
(PID.TID 0000.0001)     ;
(PID.TID 0000.0001) rhoFacC = /* normalized Reference density @ cell-Center (-) */
(PID.TID 0000.0001)  1117 @  1.000000000000000E+00              /* K =   1:1117 */
(PID.TID 0000.0001)     ;
(PID.TID 0000.0001) rhoFacF = /* normalized Reference density @ W-Interface (-) */
(PID.TID 0000.0001)  1118 @  1.000000000000000E+00              /* K =   1:1118 */
(PID.TID 0000.0001)     ;
(PID.TID 0000.0001) rhoConstFresh = /* Fresh-water reference density ( kg/m^3 ) */
(PID.TID 0000.0001)                 1.030000000000000E+03
(PID.TID 0000.0001)     ;
(PID.TID 0000.0001) gravity =   /* Gravitational acceleration ( m/s^2 ) */
(PID.TID 0000.0001)                 9.810000000000000E+00
(PID.TID 0000.0001)     ;
(PID.TID 0000.0001) gBaro =   /* Barotropic gravity ( m/s^2 ) */
(PID.TID 0000.0001)                 9.810000000000000E+00
(PID.TID 0000.0001)     ;
(PID.TID 0000.0001) gravFacC = /* gravity factor (vs surf.) @ cell-Center (-) */
(PID.TID 0000.0001)  1117 @  1.000000000000000E+00              /* K =   1:1117 */
(PID.TID 0000.0001)     ;
(PID.TID 0000.0001) gravFacF = /* gravity factor (vs surf.) @ W-Interface (-) */
(PID.TID 0000.0001)  1118 @  1.000000000000000E+00              /* K =   1:1118 */
(PID.TID 0000.0001)     ;
(PID.TID 0000.0001) rotationPeriod =   /* Rotation Period ( s ) */
(PID.TID 0000.0001)                 8.616400000000000E+04
(PID.TID 0000.0001)     ;
(PID.TID 0000.0001) omega =   /* Angular velocity ( rad/s ) */
(PID.TID 0000.0001)                 7.292123516990375E-05
(PID.TID 0000.0001)     ;
(PID.TID 0000.0001) f0 =   /* Reference coriolis parameter ( 1/s ) */
(PID.TID 0000.0001)                 1.000000000000000E-04
(PID.TID 0000.0001)     ;
(PID.TID 0000.0001) beta =   /* Beta ( 1/(m.s) ) */
(PID.TID 0000.0001)                 9.999999999999999E-12
(PID.TID 0000.0001)     ;
(PID.TID 0000.0001) fPrime =   /* Second coriolis parameter ( 1/s ) */
(PID.TID 0000.0001)                 0.000000000000000E+00
(PID.TID 0000.0001)     ;
(PID.TID 0000.0001) rigidLid =   /* Rigid lid on/off flag */
(PID.TID 0000.0001)                   F
(PID.TID 0000.0001)     ;
(PID.TID 0000.0001) implicitFreeSurface =   /* Implicit free surface on/off flag */
(PID.TID 0000.0001)                   T
(PID.TID 0000.0001)     ;
(PID.TID 0000.0001) freeSurfFac =   /* Implicit free surface factor */
(PID.TID 0000.0001)                 1.000000000000000E+00
(PID.TID 0000.0001)     ;
(PID.TID 0000.0001) implicSurfPress =  /* Surface Pressure implicit factor (0-1) */
(PID.TID 0000.0001)                 1.000000000000000E+00
(PID.TID 0000.0001)     ;
(PID.TID 0000.0001) implicDiv2DFlow =  /* Barot. Flow Div. implicit factor (0-1) */
(PID.TID 0000.0001)                 1.000000000000000E+00
(PID.TID 0000.0001)     ;
(PID.TID 0000.0001) uniformLin_PhiSurf = /* use uniform Bo_surf on/off flag */
(PID.TID 0000.0001)                   T
(PID.TID 0000.0001)     ;
(PID.TID 0000.0001) uniformFreeSurfLev = /* free-surface level-index is uniform */
(PID.TID 0000.0001)                   F
(PID.TID 0000.0001)     ;
(PID.TID 0000.0001) sIceLoadFac =  /* scale factor for sIceLoad (0-1) */
(PID.TID 0000.0001)                 1.000000000000000E+00
(PID.TID 0000.0001)     ;
(PID.TID 0000.0001) hFacMin =   /* minimum partial cell factor (hFac) */
(PID.TID 0000.0001)                 1.000000000000000E-01
(PID.TID 0000.0001)     ;
(PID.TID 0000.0001) hFacMinDr = /* minimum partial cell thickness ( m) */
(PID.TID 0000.0001)                 0.000000000000000E+00
(PID.TID 0000.0001)     ;
(PID.TID 0000.0001) exactConserv =  /* Exact Volume Conservation on/off flag */
(PID.TID 0000.0001)                   T
(PID.TID 0000.0001)     ;
(PID.TID 0000.0001) linFSConserveTr = /* Tracer correction for Lin Free Surface on/off flag */
(PID.TID 0000.0001)                   F
(PID.TID 0000.0001)     ;
(PID.TID 0000.0001) nonlinFreeSurf = /* Non-linear Free Surf. options (-1,0,1,2,3)*/
(PID.TID 0000.0001)                       4
(PID.TID 0000.0001)      -1,0= Off ; 1,2,3= On, 2=+rescale gU,gV, 3=+update cg2d solv.
(PID.TID 0000.0001)     ;
(PID.TID 0000.0001) hFacInf =   /* lower threshold for hFac (nonlinFreeSurf only)*/
(PID.TID 0000.0001)                 5.000000000000000E-02
(PID.TID 0000.0001)     ;
(PID.TID 0000.0001) hFacSup =   /* upper threshold for hFac (nonlinFreeSurf only)*/
(PID.TID 0000.0001)                 2.000000000000000E+00
(PID.TID 0000.0001)     ;
(PID.TID 0000.0001) select_rStar = /* r* Vertical coord. options (=0 r coord.; >0 uses r*)*/
(PID.TID 0000.0001)                       0
(PID.TID 0000.0001)     ;
(PID.TID 0000.0001) useRealFreshWaterFlux = /* Real Fresh Water Flux on/off flag*/
(PID.TID 0000.0001)                   T
(PID.TID 0000.0001)     ;
(PID.TID 0000.0001) temp_EvPrRn = /* Temp. of Evap/Prec/R (UNSET=use local T)(oC)*/
(PID.TID 0000.0001)                 1.234567000000000E+05
(PID.TID 0000.0001)     ;
(PID.TID 0000.0001) salt_EvPrRn = /* Salin. of Evap/Prec/R (UNSET=use local S)(g/kg)*/
(PID.TID 0000.0001)                 0.000000000000000E+00
(PID.TID 0000.0001)     ;
(PID.TID 0000.0001) selectAddFluid = /* option for mass source/sink of fluid (=0: off) */
(PID.TID 0000.0001)                       0
(PID.TID 0000.0001)     ;
(PID.TID 0000.0001) temp_addMass = /* Temp. of addMass array (UNSET=use local T)(oC)*/
(PID.TID 0000.0001)                 1.234567000000000E+05
(PID.TID 0000.0001)     ;
(PID.TID 0000.0001) salt_addMass = /* Salin. of addMass array (UNSET=use local S)(g/kg)*/
(PID.TID 0000.0001)                 0.000000000000000E+00
(PID.TID 0000.0001)     ;
(PID.TID 0000.0001) use3Dsolver = /* use 3-D pressure solver on/off flag */
(PID.TID 0000.0001)                   F
(PID.TID 0000.0001)     ;
(PID.TID 0000.0001) nonHydrostatic =  /* Non-Hydrostatic on/off flag */
(PID.TID 0000.0001)                   F
(PID.TID 0000.0001)     ;
(PID.TID 0000.0001) nh_Am2 = /* Non-Hydrostatic terms scaling factor */
(PID.TID 0000.0001)                 1.000000000000000E+00
(PID.TID 0000.0001)     ;
(PID.TID 0000.0001) implicitNHPress = /* Non-Hyd Pressure implicit factor (0-1)*/
(PID.TID 0000.0001)                 1.000000000000000E+00
(PID.TID 0000.0001)     ;
(PID.TID 0000.0001) selectNHfreeSurf = /* Non-Hyd (free-)Surface option */
(PID.TID 0000.0001)                       0
(PID.TID 0000.0001)     ;
(PID.TID 0000.0001) quasiHydrostatic = /* Quasi-Hydrostatic on/off flag */
(PID.TID 0000.0001)                   F
(PID.TID 0000.0001)     ;
(PID.TID 0000.0001) calc_wVelocity = /* vertical velocity calculation on/off flag */
(PID.TID 0000.0001)                   T
(PID.TID 0000.0001)     ;
(PID.TID 0000.0001) momStepping =  /* Momentum equation on/off flag */
(PID.TID 0000.0001)                   T
(PID.TID 0000.0001)     ;
(PID.TID 0000.0001) vectorInvariantMomentum= /* Vector-Invariant Momentum on/off */
(PID.TID 0000.0001)                   T
(PID.TID 0000.0001)     ;
(PID.TID 0000.0001) momAdvection =  /* Momentum advection on/off flag */
(PID.TID 0000.0001)                   T
(PID.TID 0000.0001)     ;
(PID.TID 0000.0001) momViscosity =  /* Momentum viscosity on/off flag */
(PID.TID 0000.0001)                   T
(PID.TID 0000.0001)     ;
(PID.TID 0000.0001) momImplVertAdv= /* Momentum implicit vert. advection on/off*/
(PID.TID 0000.0001)                   F
(PID.TID 0000.0001)     ;
(PID.TID 0000.0001) implicitViscosity = /* Implicit viscosity on/off flag */
(PID.TID 0000.0001)                   T
(PID.TID 0000.0001)     ;
(PID.TID 0000.0001) selectImplicitDrag= /* Implicit bot Drag options (0,1,2)*/
(PID.TID 0000.0001)                       2
(PID.TID 0000.0001)     0= Expl. ; 1= Impl. on provis. Vel ; 2= Fully Impl (with surf.P)
(PID.TID 0000.0001)     ;
(PID.TID 0000.0001) metricTerms =  /* metric-Terms on/off flag */
(PID.TID 0000.0001)                   T
(PID.TID 0000.0001)     ;
(PID.TID 0000.0001) useNHMTerms = /* Non-Hydrostatic Metric-Terms on/off */
(PID.TID 0000.0001)                   F
(PID.TID 0000.0001)     ;
(PID.TID 0000.0001) selectCoriMap = /* Coriolis Map options (0,1,2,3)*/
(PID.TID 0000.0001)                       2
(PID.TID 0000.0001)     0= f-Plane ; 1= Beta-Plane ; 2= Spherical ; 3= read from file
(PID.TID 0000.0001)     ;
(PID.TID 0000.0001) use3dCoriolis = /* 3-D Coriolis on/off flag */
(PID.TID 0000.0001)                   F
(PID.TID 0000.0001)     ;
(PID.TID 0000.0001) useCoriolis =  /* Coriolis on/off flag */
(PID.TID 0000.0001)                   T
(PID.TID 0000.0001)     ;
(PID.TID 0000.0001) useCDscheme =  /* CD scheme on/off flag */
(PID.TID 0000.0001)                   F
(PID.TID 0000.0001)     ;
(PID.TID 0000.0001) selectCoriScheme= /* Scheme selector for Coriolis-Term */
(PID.TID 0000.0001)                       0
(PID.TID 0000.0001)    = 0 : original discretization (simple averaging, no hFac)
(PID.TID 0000.0001)    = 1 : Wet-point averaging (Jamar & Ozer 1986)
(PID.TID 0000.0001)    = 2 : hFac weighted average (Angular Mom. conserving)
(PID.TID 0000.0001)    = 3 : energy conserving scheme using hFac weighted average
(PID.TID 0000.0001)     ;
(PID.TID 0000.0001) useAbsVorticity= /* V.I Works with f+zeta in Coriolis */
(PID.TID 0000.0001)                   F
(PID.TID 0000.0001)     ;
(PID.TID 0000.0001) selectVortScheme= /* V.I Scheme selector for Vorticity-Term */
(PID.TID 0000.0001)                       1
(PID.TID 0000.0001)    = 0 : enstrophy (Shallow-Water Eq.) conserving scheme by Sadourny, JAS 75
(PID.TID 0000.0001)    = 1 : same as 0 with modified hFac
(PID.TID 0000.0001)    = 2 : energy conserving scheme (used by Sadourny in JAS 75 paper)
(PID.TID 0000.0001)    = 3 : energy (general) and enstrophy (2D, nonDiv.) conserving scheme
(PID.TID 0000.0001)          from Sadourny (Burridge & Haseler, ECMWF Rep.4, 1977)
(PID.TID 0000.0001)     ;
(PID.TID 0000.0001) useJamartMomAdv= /* V.I Non-linear terms Jamart flag */
(PID.TID 0000.0001)                   F
(PID.TID 0000.0001)     ;
(PID.TID 0000.0001) upwindVorticity= /* V.I Upwind bias vorticity flag */
(PID.TID 0000.0001)                   F
(PID.TID 0000.0001)     ;
(PID.TID 0000.0001) highOrderVorticity= /* V.I High order vort. advect. flag */
(PID.TID 0000.0001)                   F
(PID.TID 0000.0001)     ;
(PID.TID 0000.0001) upwindShear= /* V.I Upwind vertical Shear advection flag */
(PID.TID 0000.0001)                   F
(PID.TID 0000.0001)     ;
(PID.TID 0000.0001) selectKEscheme= /* V.I Kinetic Energy scheme selector */
(PID.TID 0000.0001)                       0
(PID.TID 0000.0001)     ;
(PID.TID 0000.0001) momForcing =  /* Momentum forcing on/off flag */
(PID.TID 0000.0001)                   T
(PID.TID 0000.0001)     ;
(PID.TID 0000.0001) momTidalForcing = /* Momentum Tidal forcing on/off flag */
(PID.TID 0000.0001)                   T
(PID.TID 0000.0001)     ;
(PID.TID 0000.0001) momPressureForcing =  /* Momentum pressure term on/off flag */
(PID.TID 0000.0001)                   T
(PID.TID 0000.0001)     ;
(PID.TID 0000.0001) implicitIntGravWave= /* Implicit Internal Gravity Wave flag */
(PID.TID 0000.0001)                   F
(PID.TID 0000.0001)     ;
(PID.TID 0000.0001) staggerTimeStep =    /* Stagger time stepping on/off flag */
(PID.TID 0000.0001)                   T
(PID.TID 0000.0001)     ;
(PID.TID 0000.0001) doResetHFactors = /* reset thickness factors @ each time-step */
(PID.TID 0000.0001)                   F
(PID.TID 0000.0001)     ;
(PID.TID 0000.0001) multiDimAdvection =  /* enable/disable Multi-Dim Advection */
(PID.TID 0000.0001)                   T
(PID.TID 0000.0001)     ;
(PID.TID 0000.0001) useMultiDimAdvec =   /* Multi-Dim Advection is/is-not used */
(PID.TID 0000.0001)                   T
(PID.TID 0000.0001)     ;
(PID.TID 0000.0001) implicitDiffusion = /* Implicit Diffusion on/off flag */
(PID.TID 0000.0001)                   T
(PID.TID 0000.0001)     ;
(PID.TID 0000.0001) tempStepping =  /* Temperature equation on/off flag */
(PID.TID 0000.0001)                   T
(PID.TID 0000.0001)     ;
(PID.TID 0000.0001) tempAdvection = /* Temperature advection on/off flag */
(PID.TID 0000.0001)                   T
(PID.TID 0000.0001)     ;
(PID.TID 0000.0001) tempImplVertAdv = /* Temp. implicit vert. advection on/off */
(PID.TID 0000.0001)                   F
(PID.TID 0000.0001)     ;
(PID.TID 0000.0001) tempForcing  =  /* Temperature forcing on/off flag */
(PID.TID 0000.0001)                   T
(PID.TID 0000.0001)     ;
(PID.TID 0000.0001) doThetaClimRelax = /* apply SST relaxation on/off flag */
(PID.TID 0000.0001)                   F
(PID.TID 0000.0001)     ;
(PID.TID 0000.0001) tempIsActiveTr = /* Temp. is a dynamically Active Tracer */
(PID.TID 0000.0001)                   T
(PID.TID 0000.0001)     ;
(PID.TID 0000.0001) saltStepping =  /* Salinity equation on/off flag */
(PID.TID 0000.0001)                   T
(PID.TID 0000.0001)     ;
(PID.TID 0000.0001) saltAdvection = /* Salinity advection on/off flag */
(PID.TID 0000.0001)                   T
(PID.TID 0000.0001)     ;
(PID.TID 0000.0001) saltImplVertAdv = /* Sali. implicit vert. advection on/off */
(PID.TID 0000.0001)                   F
(PID.TID 0000.0001)     ;
(PID.TID 0000.0001) saltForcing  =  /* Salinity forcing on/off flag */
(PID.TID 0000.0001)                   T
(PID.TID 0000.0001)     ;
(PID.TID 0000.0001) doSaltClimRelax = /* apply SSS relaxation on/off flag */
(PID.TID 0000.0001)                   F
(PID.TID 0000.0001)     ;
(PID.TID 0000.0001) saltIsActiveTr = /* Salt  is a dynamically Active Tracer */
(PID.TID 0000.0001)                   T
(PID.TID 0000.0001)     ;
(PID.TID 0000.0001)  readBinaryPrec = /* Precision used for reading binary files */
(PID.TID 0000.0001)                      32
(PID.TID 0000.0001)     ;
(PID.TID 0000.0001) writeBinaryPrec = /* Precision used for writing binary files */
(PID.TID 0000.0001)                      32
(PID.TID 0000.0001)     ;
(PID.TID 0000.0001)  rwSuffixType =   /* select format of mds file suffix */
(PID.TID 0000.0001)                       0
(PID.TID 0000.0001)    = 0 : myIter (I10.10) ;   = 1 : 100*myTime (100th sec) ;
(PID.TID 0000.0001)    = 2 : myTime (seconds);   = 3 : myTime/360 (10th of hr);
(PID.TID 0000.0001)    = 4 : myTime/3600 (hours)
(PID.TID 0000.0001)     ;
(PID.TID 0000.0001)  globalFiles = /* write "global" (=not per tile) files */
(PID.TID 0000.0001)                   F
(PID.TID 0000.0001)     ;
(PID.TID 0000.0001)  useSingleCpuIO = /* only master MPI process does I/O */
(PID.TID 0000.0001)                   T
(PID.TID 0000.0001)     ;
(PID.TID 0000.0001)  useSingleCpuInput = /* only master process reads input */
(PID.TID 0000.0001)                   T
(PID.TID 0000.0001)     ;
(PID.TID 0000.0001) /* debLev[*]  : level of debug & auxiliary message printing */
(PID.TID 0000.0001) debLevZero =  0 ; /* level of disabled aux. msg printing */
(PID.TID 0000.0001)    debLevA =  1 ; /* level of minimum  aux. msg printing */
(PID.TID 0000.0001)    debLevB =  2 ; /* level of low aux. print (report read-file opening)*/
(PID.TID 0000.0001)    debLevC =  3 ; /* level of moderate debug prt (most pkgs debug msg) */
(PID.TID 0000.0001)    debLevD =  4 ; /* level of enhanced debug prt (add DEBUG_STATS prt) */
(PID.TID 0000.0001)    debLevE =  5 ; /* level of extensive debug printing */
(PID.TID 0000.0001) debugLevel =  /* select debug printing level */
(PID.TID 0000.0001)                       1
(PID.TID 0000.0001)     ;
(PID.TID 0000.0001)  plotLevel =  /* select PLOT_FIELD printing level */
(PID.TID 0000.0001)                       0
(PID.TID 0000.0001)     ;
(PID.TID 0000.0001) //
(PID.TID 0000.0001) // Elliptic solver(s) paramters ( PARM02 in namelist )
(PID.TID 0000.0001) //
(PID.TID 0000.0001) cg2dMaxIters =   /* Upper limit on 2d con. grad iterations  */
(PID.TID 0000.0001)                     300
(PID.TID 0000.0001)     ;
(PID.TID 0000.0001) cg2dMinItersNSA =   /* Minimum number of iterations of 2d con. grad solver  */
(PID.TID 0000.0001)                       0
(PID.TID 0000.0001)     ;
(PID.TID 0000.0001) cg2dUseMinResSol= /* use cg2d last-iter(=0) / min-resid.(=1) solution */
(PID.TID 0000.0001)                       0
(PID.TID 0000.0001)     ;
(PID.TID 0000.0001) cg2dTargetResidual =   /* 2d con. grad target residual  */
(PID.TID 0000.0001)                 9.999999999999999E-12
(PID.TID 0000.0001)     ;
(PID.TID 0000.0001) cg2dTargetResWunit =   /* CG2d target residual [W units] */
(PID.TID 0000.0001)                -1.000000000000000E+00
(PID.TID 0000.0001)     ;
(PID.TID 0000.0001) cg2dPreCondFreq =   /* Freq. for updating cg2d preconditioner */
(PID.TID 0000.0001)                       1
(PID.TID 0000.0001)     ;
(PID.TID 0000.0001) useSRCGSolver =  /* use single reduction CG solver(s) */
(PID.TID 0000.0001)                   F
(PID.TID 0000.0001)     ;
(PID.TID 0000.0001) useNSACGSolver =  /* use not-self-adjoint CG solver */
(PID.TID 0000.0001)                   F
(PID.TID 0000.0001)     ;
(PID.TID 0000.0001) printResidualFreq = /* Freq. for printing CG residual */
(PID.TID 0000.0001)                       0
(PID.TID 0000.0001)     ;
(PID.TID 0000.0001) //
(PID.TID 0000.0001) // Time stepping paramters ( PARM03 in namelist )
(PID.TID 0000.0001) //
(PID.TID 0000.0001) deltaTMom =   /* Momentum equation timestep ( s ) */
(PID.TID 0000.0001)                 4.000000000000000E+00
(PID.TID 0000.0001)     ;
(PID.TID 0000.0001) deltaTFreeSurf = /* FreeSurface equation timestep ( s ) */
(PID.TID 0000.0001)                 4.000000000000000E+00
(PID.TID 0000.0001)     ;
(PID.TID 0000.0001) dTtracerLev =  /* Tracer equation timestep ( s ) */
(PID.TID 0000.0001)  1117 @  4.000000000000000E+00              /* K =   1:1117 */
(PID.TID 0000.0001)     ;
(PID.TID 0000.0001) deltaTClock  =   /* Model clock timestep ( s ) */
(PID.TID 0000.0001)                 4.000000000000000E+00
(PID.TID 0000.0001)     ;
(PID.TID 0000.0001) cAdjFreq =   /* Convective adjustment interval ( s ) */
(PID.TID 0000.0001)                 0.000000000000000E+00
(PID.TID 0000.0001)     ;
(PID.TID 0000.0001) momForcingOutAB = /* =1: take Momentum Forcing out of Adams-Bash. stepping */
(PID.TID 0000.0001)                       1
(PID.TID 0000.0001)     ;
(PID.TID 0000.0001) tracForcingOutAB = /* =1: take T,S,pTr Forcing out of Adams-Bash. stepping */
(PID.TID 0000.0001)                       1
(PID.TID 0000.0001)     ;
(PID.TID 0000.0001) momDissip_In_AB = /* put Dissipation Tendency in Adams-Bash. stepping */
(PID.TID 0000.0001)                   T
(PID.TID 0000.0001)     ;
(PID.TID 0000.0001) doAB_onGtGs = /* apply AB on Tendencies (rather than on T,S)*/
(PID.TID 0000.0001)                   T
(PID.TID 0000.0001)     ;
(PID.TID 0000.0001) abEps =   /* Adams-Bashforth-2 stabilizing weight */
(PID.TID 0000.0001)                 1.000000000000000E-01
(PID.TID 0000.0001)     ;
(PID.TID 0000.0001) applyExchUV_early = /* Apply EXCH to U,V earlier in time-step */
(PID.TID 0000.0001)                   F
(PID.TID 0000.0001)     ;
(PID.TID 0000.0001) pickupStrictlyMatch= /* stop if pickup do not strictly match */
(PID.TID 0000.0001)                   T
(PID.TID 0000.0001)     ;
(PID.TID 0000.0001) nIter0   =   /* Run starting timestep number */
(PID.TID 0000.0001)                  756000
(PID.TID 0000.0001)     ;
(PID.TID 0000.0001) nTimeSteps = /* Number of timesteps */
(PID.TID 0000.0001)                      20
(PID.TID 0000.0001)     ;
(PID.TID 0000.0001) nEndIter =   /* Run ending timestep number */
(PID.TID 0000.0001)                  756020
(PID.TID 0000.0001)     ;
(PID.TID 0000.0001) baseTime =   /* Model base time ( s ) */
(PID.TID 0000.0001)                 0.000000000000000E+00
(PID.TID 0000.0001)     ;
(PID.TID 0000.0001) startTime =  /* Run start time ( s ) */
(PID.TID 0000.0001)                 3.024000000000000E+06
(PID.TID 0000.0001)     ;
(PID.TID 0000.0001) endTime  =   /* Integration ending time ( s ) */
(PID.TID 0000.0001)                 3.024080000000000E+06
(PID.TID 0000.0001)     ;
(PID.TID 0000.0001) pChkPtFreq = /* Permanent restart/pickup file interval ( s ) */
(PID.TID 0000.0001)                 4.320000000000000E+04
(PID.TID 0000.0001)     ;
(PID.TID 0000.0001) chkPtFreq  = /* Rolling restart/pickup file interval ( s ) */
(PID.TID 0000.0001)                 4.320000000000000E+04
(PID.TID 0000.0001)     ;
(PID.TID 0000.0001) pickup_write_mdsio =   /* Model IO flag. */
(PID.TID 0000.0001)                   T
(PID.TID 0000.0001)     ;
(PID.TID 0000.0001) pickup_read_mdsio =   /* Model IO flag. */
(PID.TID 0000.0001)                   T
(PID.TID 0000.0001)     ;
(PID.TID 0000.0001) writePickupAtEnd =   /* Model IO flag. */
(PID.TID 0000.0001)                   T
(PID.TID 0000.0001)     ;
(PID.TID 0000.0001) dumpFreq =   /* Model state write out interval ( s ). */
(PID.TID 0000.0001)                 4.000000000000000E+00
(PID.TID 0000.0001)     ;
(PID.TID 0000.0001) dumpInitAndLast= /* write out Initial & Last iter. model state */
(PID.TID 0000.0001)                   T
(PID.TID 0000.0001)     ;
(PID.TID 0000.0001) snapshot_mdsio =   /* Model IO flag. */
(PID.TID 0000.0001)                   T
(PID.TID 0000.0001)     ;
(PID.TID 0000.0001) monitorFreq =   /* Monitor output interval ( s ). */
(PID.TID 0000.0001)                 4.000000000000000E+00
(PID.TID 0000.0001)     ;
(PID.TID 0000.0001) monitorSelect = /* select group of variables to monitor */
(PID.TID 0000.0001)                       3
(PID.TID 0000.0001)     ;
(PID.TID 0000.0001) monitor_stdio =   /* Model IO flag. */
(PID.TID 0000.0001)                   T
(PID.TID 0000.0001)     ;
(PID.TID 0000.0001) externForcingPeriod =   /* forcing period (s) */
(PID.TID 0000.0001)                 0.000000000000000E+00
(PID.TID 0000.0001)     ;
(PID.TID 0000.0001) externForcingCycle =   /* period of the cyle (s). */
(PID.TID 0000.0001)                 0.000000000000000E+00
(PID.TID 0000.0001)     ;
(PID.TID 0000.0001) tauThetaClimRelax =   /* relaxation time scale (s) */
(PID.TID 0000.0001)                 0.000000000000000E+00
(PID.TID 0000.0001)     ;
(PID.TID 0000.0001) tauSaltClimRelax =   /* relaxation time scale (s) */
(PID.TID 0000.0001)                 0.000000000000000E+00
(PID.TID 0000.0001)     ;
(PID.TID 0000.0001) latBandClimRelax =   /* max. Lat. where relaxation */
(PID.TID 0000.0001)                 1.800000000000000E+02
(PID.TID 0000.0001)     ;
(PID.TID 0000.0001) //
(PID.TID 0000.0001) // Gridding paramters ( PARM04 in namelist )
(PID.TID 0000.0001) //
(PID.TID 0000.0001) usingCartesianGrid = /* Cartesian coordinates flag ( True/False ) */
(PID.TID 0000.0001)                   F
(PID.TID 0000.0001)     ;
(PID.TID 0000.0001) usingCylindricalGrid = /* Cylindrical coordinates flag ( True/False ) */
(PID.TID 0000.0001)                   F
(PID.TID 0000.0001)     ;
(PID.TID 0000.0001) usingSphericalPolarGrid = /* Spherical coordinates flag ( True/False ) */
(PID.TID 0000.0001)                   T
(PID.TID 0000.0001)     ;
(PID.TID 0000.0001) usingCurvilinearGrid = /* Curvilinear coordinates flag ( True/False ) */
(PID.TID 0000.0001)                   F
(PID.TID 0000.0001)     ;
(PID.TID 0000.0001) useMin4hFacEdges = /* set hFacW,S as minimum of adjacent hFacC factor */
(PID.TID 0000.0001)                   F
(PID.TID 0000.0001)     ;
(PID.TID 0000.0001) interViscAr_pCell = /* account for partial-cell in interior vert. viscosity */
(PID.TID 0000.0001)                   F
(PID.TID 0000.0001)     ;
(PID.TID 0000.0001) interDiffKr_pCell = /* account for partial-cell in interior vert. diffusion */
(PID.TID 0000.0001)                   F
(PID.TID 0000.0001)     ;
(PID.TID 0000.0001) pCellMix_select = /* option to enhance mixing near surface & bottom */
(PID.TID 0000.0001)                      20
(PID.TID 0000.0001)     ;
(PID.TID 0000.0001) pCellMix_maxFac = /* maximum enhanced mixing factor */
(PID.TID 0000.0001)                 1.000000000000000E+04
(PID.TID 0000.0001)     ;
(PID.TID 0000.0001) pCellMix_delR = /* thickness criteria for too thin partial-cell (  m ) */
(PID.TID 0000.0001)                 1.000000000000000E+01
(PID.TID 0000.0001)     ;
(PID.TID 0000.0001) pCellMix_viscAr = /* vertical viscosity   for too thin partial-cell */
(PID.TID 0000.0001)  1117 @  1.000000000000000E-03              /* K =   1:1117 */
(PID.TID 0000.0001)     ;
(PID.TID 0000.0001) pCellMix_diffKr = /* vertical diffusivity for too thin partial-cell */
(PID.TID 0000.0001)  1117 @  1.000000000000000E-04              /* K =   1:1117 */
(PID.TID 0000.0001)     ;
(PID.TID 0000.0001) selectSigmaCoord = /* Hybrid-Sigma Vert. Coordinate option */
(PID.TID 0000.0001)                       0
(PID.TID 0000.0001)     ;
(PID.TID 0000.0001) rSigmaBnd = /* r/sigma transition ( units of r ==  m ) */
(PID.TID 0000.0001)                 1.234567000000000E+05
(PID.TID 0000.0001)     ;
(PID.TID 0000.0001) rkSign =   /* index orientation relative to vertical coordinate */
(PID.TID 0000.0001)                -1.000000000000000E+00
(PID.TID 0000.0001)     ;
(PID.TID 0000.0001) gravitySign = /* gravity orientation relative to vertical coordinate */
(PID.TID 0000.0001)                -1.000000000000000E+00
(PID.TID 0000.0001)     ;
(PID.TID 0000.0001) seaLev_Z =  /* reference height of sea-level [m] */
(PID.TID 0000.0001)                 0.000000000000000E+00
(PID.TID 0000.0001)     ;
(PID.TID 0000.0001) top_Pres =  /* reference pressure at the top [Pa] */
(PID.TID 0000.0001)                 0.000000000000000E+00
(PID.TID 0000.0001)     ;
(PID.TID 0000.0001) mass2rUnit = /* convert mass per unit area [kg/m2] to r-units [m] */
(PID.TID 0000.0001)                 9.708737864077669E-04
(PID.TID 0000.0001)     ;
(PID.TID 0000.0001) rUnit2mass = /* convert r-units [m] to mass per unit area [kg/m2] */
(PID.TID 0000.0001)                 1.030000000000000E+03
(PID.TID 0000.0001)     ;
(PID.TID 0000.0001) drC =   /* C spacing ( units of r ) */
(PID.TID 0000.0001)                 5.003700000000000E-01,      /* K =   1 */
(PID.TID 0000.0001)  1116 @  1.000740000000000E+00,             /* K =   2:1117 */
(PID.TID 0000.0001)                 5.003700000000000E-01       /* K =1118 */
(PID.TID 0000.0001)     ;
(PID.TID 0000.0001) drF =   /* W spacing ( units of r ) */
(PID.TID 0000.0001)  1117 @  1.000740000000000E+00              /* K =   1:1117 */
(PID.TID 0000.0001)     ;
(PID.TID 0000.0001) delX = /* U spacing ( m - cartesian, degrees - spherical ) */
(PID.TID 0000.0001)                 8.976660668849945E-03,      /* I =  1 */
(PID.TID 0000.0001)                 8.976660668849945E-03,      /* I =  2 */
(PID.TID 0000.0001)                 8.976660668849945E-03,      /* I =  3 */
(PID.TID 0000.0001)      . . .
(PID.TID 0000.0001)                 2.671534661203623E-03,      /* I =234 */
(PID.TID 0000.0001)                 2.623571781441569E-03,      /* I =235 */
(PID.TID 0000.0001)                 2.576469909399748E-03,      /* I =236 */
(PID.TID 0000.0001)                 2.530213911086321E-03,      /* I =237 */
(PID.TID 0000.0001)                 2.484788186848164E-03,      /* I =238 */
(PID.TID 0000.0001)                 2.440177835524082E-03,      /* I =239 */
(PID.TID 0000.0001)      . . .
(PID.TID 0000.0001)                 8.976660901680589E-04,      /* I =470 */
(PID.TID 0000.0001)                 8.976660901680589E-04,      /* I =471 */
(PID.TID 0000.0001)                 8.976660901680589E-04,      /* I =472 */
(PID.TID 0000.0001)                 8.976660901680589E-04,      /* I =473 */
(PID.TID 0000.0001)                 8.976660901680589E-04,      /* I =474 */
(PID.TID 0000.0001)                 8.976660901680589E-04,      /* I =475 */
(PID.TID 0000.0001)      . . .
(PID.TID 0000.0001)                 8.976660901680589E-04,      /* I =706 */
(PID.TID 0000.0001)                 8.976660901680589E-04,      /* I =707 */
(PID.TID 0000.0001)                 8.976660901680589E-04,      /* I =708 */
(PID.TID 0000.0001)                 8.976660901680589E-04,      /* I =709 */
(PID.TID 0000.0001)                 8.976660901680589E-04,      /* I =710 */
(PID.TID 0000.0001)                 8.976660901680589E-04,      /* I =711 */
(PID.TID 0000.0001)      . . .
(PID.TID 0000.0001)                 8.976660901680589E-04,      /* I =942 */
(PID.TID 0000.0001)                 8.976660901680589E-04,      /* I =943 */
(PID.TID 0000.0001)                 8.976660901680589E-04       /* I =944 */
(PID.TID 0000.0001)     ;
(PID.TID 0000.0001) delY = /* V spacing ( m - cartesian, degrees - spherical ) */
(PID.TID 0000.0001)                 2.709700260311365E-03,      /* J =  1 */
(PID.TID 0000.0001)                 2.621249295771122E-03,      /* J =  2 */
(PID.TID 0000.0001)                 2.535685431212187E-03,      /* J =  3 */
(PID.TID 0000.0001)                 2.452914370223880E-03,      /* J =  4 */
(PID.TID 0000.0001)                 2.372845541685820E-03,      /* J =  5 */
(PID.TID 0000.0001)                 2.295390004292130E-03,      /* J =  6 */
(PID.TID 0000.0001)                 2.220463007688522E-03,      /* J =  7 */
(PID.TID 0000.0001)                 2.147981664165854E-03,      /* J =  8 */
(PID.TID 0000.0001)                 2.077866578474641E-03,      /* J =  9 */
(PID.TID 0000.0001)                 2.010039985179901E-03,      /* J = 10 */
(PID.TID 0000.0001)                 1.944427378475666E-03,      /* J = 11 */
(PID.TID 0000.0001)                 1.880956580862403E-03,      /* J = 12 */
(PID.TID 0000.0001)                 1.819557626731694E-03,      /* J = 13 */
(PID.TID 0000.0001)                 1.760162995196879E-03,      /* J = 14 */
(PID.TID 0000.0001)                 1.702707028016448E-03,      /* J = 15 */
(PID.TID 0000.0001)                 1.647126511670649E-03,      /* J = 16 */
(PID.TID 0000.0001)                 1.593360328115523E-03,      /* J = 17 */
(PID.TID 0000.0001)                 1.541349221952260E-03,      /* J = 18 */
(PID.TID 0000.0001)                 1.491035916842520E-03,      /* J = 19 */
(PID.TID 0000.0001)                 1.442364882677794E-03,      /* J = 20 */
(PID.TID 0000.0001)                 1.395282684825361E-03,      /* J = 21 */
(PID.TID 0000.0001)                 1.349737285636365E-03,      /* J = 22 */
(PID.TID 0000.0001)                 1.305678626522422E-03,      /* J = 23 */
(PID.TID 0000.0001)                 1.263058162294328E-03,      /* J = 24 */
(PID.TID 0000.0001)                 1.221828861162066E-03,      /* J = 25 */
(PID.TID 0000.0001)                 1.181945437565446E-03,      /* J = 26 */
(PID.TID 0000.0001)                 1.143363886512816E-03,      /* J = 27 */
(PID.TID 0000.0001)                 1.106041832827032E-03,      /* J = 28 */
(PID.TID 0000.0001)                 1.069937949068844E-03,      /* J = 29 */
(PID.TID 0000.0001)                 1.035012537613511E-03,      /* J = 30 */
(PID.TID 0000.0001)                 1.001227297820151E-03,      /* J = 31 */
(PID.TID 0000.0001)                 9.685448021627963E-04,      /* J = 32 */
(PID.TID 0000.0001)                 9.369291947223246E-04,      /* J = 33 */
(PID.TID 0000.0001)                 9.063455509021878E-04,      /* J = 34 */
(PID.TID 0000.0001)                 8.767602848820388E-04,      /* J = 35 */
(PID.TID 0000.0001)                 8.481406839564443E-04,      /* J = 36 */
(PID.TID 0000.0001)                 8.204553741961718E-04,      /* J = 37 */
(PID.TID 0000.0001)                 7.936737383715808E-04,      /* J = 38 */
(PID.TID 0000.0001)   202 @  8.976660901680589E-04              /* J = 39:240 */
(PID.TID 0000.0001)     ;
(PID.TID 0000.0001) xgOrigin = /* X-axis origin of West  edge (cartesian: m, lat-lon: deg) */
(PID.TID 0000.0001)                -6.260000000000000E+01
(PID.TID 0000.0001)     ;
(PID.TID 0000.0001) ygOrigin = /* Y-axis origin of South edge (cartesian: m, lat-lon: deg) */
(PID.TID 0000.0001)                 8.045000000000000E+01
(PID.TID 0000.0001)     ;
(PID.TID 0000.0001) rSphere =  /* Radius ( ignored - cartesian, m - spherical ) */
(PID.TID 0000.0001)                 6.370000000000000E+06
(PID.TID 0000.0001)     ;
(PID.TID 0000.0001) deepAtmosphere = /* Deep/Shallow Atmosphere flag (True/False) */
(PID.TID 0000.0001)                   F
(PID.TID 0000.0001)     ;
(PID.TID 0000.0001) xC =  /* xC(:,1,:,1) : P-point X coord ( deg. or m if cartesian) */
(PID.TID 0000.0001)                -6.259551166966558E+01,      /* I =  1 */
(PID.TID 0000.0001)                -6.258653500899673E+01,      /* I =  2 */
(PID.TID 0000.0001)                -6.257755834832788E+01,      /* I =  3 */
(PID.TID 0000.0001)                -6.256858168765903E+01,      /* I =  4 */
(PID.TID 0000.0001)                -6.255960502699018E+01,      /* I =  5 */
(PID.TID 0000.0001)                -6.255062836632133E+01,      /* I =  6 */
(PID.TID 0000.0001)                -6.254165170565248E+01,      /* I =  7 */
(PID.TID 0000.0001)                -6.253267504498363E+01,      /* I =  8 */
(PID.TID 0000.0001)                -6.252369838431478E+01,      /* I =  9 */
(PID.TID 0000.0001)                -6.251472172364593E+01,      /* I = 10 */
(PID.TID 0000.0001)                -6.250574506297708E+01,      /* I = 11 */
(PID.TID 0000.0001)                -6.249676840230823E+01,      /* I = 12 */
(PID.TID 0000.0001)                -6.248779174163938E+01,      /* I = 13 */
(PID.TID 0000.0001)                -6.247881508097053E+01,      /* I = 14 */
(PID.TID 0000.0001)                -6.246983842030168E+01,      /* I = 15 */
(PID.TID 0000.0001)                -6.246086175963283E+01,      /* I = 16 */
(PID.TID 0000.0001)                -6.245188509896398E+01,      /* I = 17 */
(PID.TID 0000.0001)                -6.244290843829513E+01,      /* I = 18 */
(PID.TID 0000.0001)                -6.243393177762628E+01,      /* I = 19 */
(PID.TID 0000.0001)                -6.242495511695743E+01,      /* I = 20 */
(PID.TID 0000.0001)                -6.241597845628858E+01,      /* I = 21 */
(PID.TID 0000.0001)                -6.240700179561973E+01,      /* I = 22 */
(PID.TID 0000.0001)                -6.239802513495088E+01,      /* I = 23 */
(PID.TID 0000.0001)                -6.238904847428203E+01,      /* I = 24 */
(PID.TID 0000.0001)                -6.238007181361318E+01,      /* I = 25 */
(PID.TID 0000.0001)                -6.237109515294433E+01,      /* I = 26 */
(PID.TID 0000.0001)                -6.236211849227548E+01,      /* I = 27 */
(PID.TID 0000.0001)                -6.235314183160663E+01,      /* I = 28 */
(PID.TID 0000.0001)                -6.234416517093778E+01,      /* I = 29 */
(PID.TID 0000.0001)                -6.233518851026893E+01,      /* I = 30 */
(PID.TID 0000.0001)                -6.232621184960008E+01,      /* I = 31 */
(PID.TID 0000.0001)                -6.231723518893123E+01,      /* I = 32 */
(PID.TID 0000.0001)                -6.230825852826238E+01,      /* I = 33 */
(PID.TID 0000.0001)                -6.229928186759353E+01,      /* I = 34 */
(PID.TID 0000.0001)                -6.229030520692468E+01,      /* I = 35 */
(PID.TID 0000.0001)                -6.228132854625583E+01,      /* I = 36 */
(PID.TID 0000.0001)                -6.227235188558698E+01,      /* I = 37 */
(PID.TID 0000.0001)                -6.226337522491813E+01,      /* I = 38 */
(PID.TID 0000.0001)                -6.225439856424928E+01,      /* I = 39 */
(PID.TID 0000.0001)                -6.224542190358043E+01,      /* I = 40 */
(PID.TID 0000.0001)                -6.223644524291158E+01,      /* I = 41 */
(PID.TID 0000.0001)                -6.222746858224273E+01,      /* I = 42 */
(PID.TID 0000.0001)                -6.221849192157388E+01,      /* I = 43 */
(PID.TID 0000.0001)                -6.220951526090503E+01,      /* I = 44 */
(PID.TID 0000.0001)                -6.220053860023618E+01,      /* I = 45 */
(PID.TID 0000.0001)                -6.219156193956733E+01,      /* I = 46 */
(PID.TID 0000.0001)                -6.218258527889848E+01,      /* I = 47 */
(PID.TID 0000.0001)                -6.217360861822963E+01,      /* I = 48 */
(PID.TID 0000.0001)                -6.216463195756078E+01,      /* I = 49 */
(PID.TID 0000.0001)                -6.215565529689193E+01,      /* I = 50 */
(PID.TID 0000.0001)                -6.214667863622308E+01,      /* I = 51 */
(PID.TID 0000.0001)                -6.213770197555423E+01,      /* I = 52 */
(PID.TID 0000.0001)                -6.212872531488538E+01,      /* I = 53 */
(PID.TID 0000.0001)                -6.211974865421653E+01,      /* I = 54 */
(PID.TID 0000.0001)                -6.211077199354768E+01,      /* I = 55 */
(PID.TID 0000.0001)                -6.210179533287883E+01,      /* I = 56 */
(PID.TID 0000.0001)                -6.209281867220998E+01,      /* I = 57 */
(PID.TID 0000.0001)                -6.208384201154113E+01,      /* I = 58 */
(PID.TID 0000.0001)                -6.207486535087228E+01       /* I = 59 */
(PID.TID 0000.0001)     ;
(PID.TID 0000.0001) yC =  /* yC(1,:,1,:) : P-point Y coord ( deg. or m if cartesian) */
(PID.TID 0000.0001)                 8.045135485013016E+01,      /* J =  1 */
(PID.TID 0000.0001)                 8.045402032490820E+01,      /* J =  2 */
(PID.TID 0000.0001)                 8.045659879227169E+01,      /* J =  3 */
(PID.TID 0000.0001)                 8.045909309217241E+01,      /* J =  4 */
(PID.TID 0000.0001)                 8.046150597212836E+01,      /* J =  5 */
(PID.TID 0000.0001)                 8.046384008990135E+01,      /* J =  6 */
(PID.TID 0000.0001)                 8.046609801640734E+01,      /* J =  7 */
(PID.TID 0000.0001)                 8.046828223874327E+01,      /* J =  8 */
(PID.TID 0000.0001)                 8.047039516286459E+01,      /* J =  9 */
(PID.TID 0000.0001)                 8.047243911614642E+01,      /* J = 10 */
(PID.TID 0000.0001)                 8.047441634982825E+01,      /* J = 11 */
(PID.TID 0000.0001)                 8.047632904180792E+01,      /* J = 12 */
(PID.TID 0000.0001)                 8.047817929891171E+01,      /* J = 13 */
(PID.TID 0000.0001)                 8.047996915922268E+01,      /* J = 14 */
(PID.TID 0000.0001)                 8.048170059423428E+01       /* J = 15 */
(PID.TID 0000.0001)     ;
(PID.TID 0000.0001) rcoord = /* P-point R coordinate (  units of r ) */
(PID.TID 0000.0001)                -5.003700000000000E-01,      /* K =   1 */
(PID.TID 0000.0001)                -1.501110000000000E+00,      /* K =   2 */
(PID.TID 0000.0001)                -2.501850000000000E+00,      /* K =   3 */
(PID.TID 0000.0001)                -3.502590000000000E+00,      /* K =   4 */
(PID.TID 0000.0001)                -4.503330000000000E+00,      /* K =   5 */
(PID.TID 0000.0001)                -5.504070000000000E+00,      /* K =   6 */
(PID.TID 0000.0001)                -6.504810000000001E+00,      /* K =   7 */
(PID.TID 0000.0001)                -7.505550000000001E+00,      /* K =   8 */
(PID.TID 0000.0001)                -8.506290000000002E+00,      /* K =   9 */
(PID.TID 0000.0001)                -9.507030000000002E+00,      /* K =  10 */
(PID.TID 0000.0001)                -1.050777000000000E+01,      /* K =  11 */
(PID.TID 0000.0001)                -1.150851000000000E+01,      /* K =  12 */
(PID.TID 0000.0001)                -1.250925000000000E+01,      /* K =  13 */
(PID.TID 0000.0001)                -1.350999000000000E+01,      /* K =  14 */
(PID.TID 0000.0001)                -1.451073000000000E+01,      /* K =  15 */
(PID.TID 0000.0001)                -1.551147000000000E+01,      /* K =  16 */
(PID.TID 0000.0001)                -1.651221000000000E+01,      /* K =  17 */
(PID.TID 0000.0001)                -1.751295000000000E+01,      /* K =  18 */
(PID.TID 0000.0001)                -1.851369000000000E+01,      /* K =  19 */
(PID.TID 0000.0001)                -1.951443000000000E+01,      /* K =  20 */
(PID.TID 0000.0001)                -2.051517000000000E+01,      /* K =  21 */
(PID.TID 0000.0001)                -2.151591000000001E+01,      /* K =  22 */
(PID.TID 0000.0001)                -2.251665000000001E+01,      /* K =  23 */
(PID.TID 0000.0001)                -2.351739000000001E+01,      /* K =  24 */
(PID.TID 0000.0001)                -2.451813000000001E+01,      /* K =  25 */
(PID.TID 0000.0001)                -2.551887000000001E+01,      /* K =  26 */
(PID.TID 0000.0001)                -2.651961000000001E+01,      /* K =  27 */
(PID.TID 0000.0001)                -2.752035000000001E+01,      /* K =  28 */
(PID.TID 0000.0001)                -2.852109000000001E+01,      /* K =  29 */
(PID.TID 0000.0001)                -2.952183000000001E+01,      /* K =  30 */
(PID.TID 0000.0001)                -3.052257000000001E+01,      /* K =  31 */
(PID.TID 0000.0001)                -3.152331000000001E+01,      /* K =  32 */
(PID.TID 0000.0001)                -3.252405000000001E+01,      /* K =  33 */
(PID.TID 0000.0001)                -3.352479000000001E+01,      /* K =  34 */
(PID.TID 0000.0001)                -3.452553000000001E+01,      /* K =  35 */
(PID.TID 0000.0001)                -3.552627000000001E+01,      /* K =  36 */
(PID.TID 0000.0001)                -3.652701000000001E+01,      /* K =  37 */
(PID.TID 0000.0001)                -3.752775000000001E+01,      /* K =  38 */
(PID.TID 0000.0001)                -3.852849000000001E+01,      /* K =  39 */
(PID.TID 0000.0001)                -3.952923000000001E+01,      /* K =  40 */
(PID.TID 0000.0001)                -4.052997000000001E+01,      /* K =  41 */
(PID.TID 0000.0001)                -4.153071000000001E+01,      /* K =  42 */
(PID.TID 0000.0001)                -4.253145000000001E+01,      /* K =  43 */
(PID.TID 0000.0001)                -4.353219000000001E+01,      /* K =  44 */
(PID.TID 0000.0001)                -4.453293000000001E+01,      /* K =  45 */
(PID.TID 0000.0001)                -4.553367000000001E+01,      /* K =  46 */
(PID.TID 0000.0001)                -4.653441000000002E+01,      /* K =  47 */
(PID.TID 0000.0001)                -4.753515000000002E+01,      /* K =  48 */
(PID.TID 0000.0001)                -4.853589000000002E+01,      /* K =  49 */
(PID.TID 0000.0001)                -4.953663000000002E+01,      /* K =  50 */
(PID.TID 0000.0001)                -5.053737000000002E+01,      /* K =  51 */
(PID.TID 0000.0001)                -5.153811000000002E+01,      /* K =  52 */
(PID.TID 0000.0001)                -5.253885000000002E+01,      /* K =  53 */
(PID.TID 0000.0001)                -5.353959000000002E+01,      /* K =  54 */
(PID.TID 0000.0001)                -5.454033000000002E+01,      /* K =  55 */
(PID.TID 0000.0001)                -5.554107000000002E+01,      /* K =  56 */
(PID.TID 0000.0001)                -5.654181000000002E+01,      /* K =  57 */
(PID.TID 0000.0001)                -5.754255000000002E+01,      /* K =  58 */
(PID.TID 0000.0001)                -5.854329000000002E+01,      /* K =  59 */
(PID.TID 0000.0001)                -5.954403000000002E+01,      /* K =  60 */
(PID.TID 0000.0001)                -6.054477000000002E+01,      /* K =  61 */
(PID.TID 0000.0001)                -6.154551000000002E+01,      /* K =  62 */
(PID.TID 0000.0001)                -6.254625000000002E+01,      /* K =  63 */
(PID.TID 0000.0001)                -6.354699000000002E+01,      /* K =  64 */
(PID.TID 0000.0001)                -6.454773000000002E+01,      /* K =  65 */
(PID.TID 0000.0001)                -6.554847000000001E+01,      /* K =  66 */
(PID.TID 0000.0001)                -6.654921000000000E+01,      /* K =  67 */
(PID.TID 0000.0001)                -6.754995000000000E+01,      /* K =  68 */
(PID.TID 0000.0001)                -6.855068999999999E+01,      /* K =  69 */
(PID.TID 0000.0001)                -6.955142999999998E+01,      /* K =  70 */
(PID.TID 0000.0001)                -7.055216999999998E+01,      /* K =  71 */
(PID.TID 0000.0001)                -7.155290999999997E+01,      /* K =  72 */
(PID.TID 0000.0001)                -7.255364999999996E+01,      /* K =  73 */
(PID.TID 0000.0001)                -7.355438999999996E+01,      /* K =  74 */
(PID.TID 0000.0001)                -7.455512999999995E+01,      /* K =  75 */
(PID.TID 0000.0001)                -7.555586999999994E+01,      /* K =  76 */
(PID.TID 0000.0001)                -7.655660999999994E+01,      /* K =  77 */
(PID.TID 0000.0001)                -7.755734999999993E+01,      /* K =  78 */
(PID.TID 0000.0001)                -7.855808999999992E+01,      /* K =  79 */
(PID.TID 0000.0001)                -7.955882999999992E+01,      /* K =  80 */
(PID.TID 0000.0001)                -8.055956999999991E+01,      /* K =  81 */
(PID.TID 0000.0001)                -8.156030999999990E+01,      /* K =  82 */
(PID.TID 0000.0001)                -8.256104999999990E+01,      /* K =  83 */
(PID.TID 0000.0001)                -8.356178999999989E+01,      /* K =  84 */
(PID.TID 0000.0001)                -8.456252999999988E+01,      /* K =  85 */
(PID.TID 0000.0001)                -8.556326999999987E+01,      /* K =  86 */
(PID.TID 0000.0001)                -8.656400999999987E+01,      /* K =  87 */
(PID.TID 0000.0001)                -8.756474999999986E+01,      /* K =  88 */
(PID.TID 0000.0001)                -8.856548999999985E+01,      /* K =  89 */
(PID.TID 0000.0001)                -8.956622999999985E+01,      /* K =  90 */
(PID.TID 0000.0001)                -9.056696999999984E+01,      /* K =  91 */
(PID.TID 0000.0001)                -9.156770999999983E+01,      /* K =  92 */
(PID.TID 0000.0001)                -9.256844999999983E+01,      /* K =  93 */
(PID.TID 0000.0001)                -9.356918999999982E+01,      /* K =  94 */
(PID.TID 0000.0001)                -9.456992999999981E+01,      /* K =  95 */
(PID.TID 0000.0001)                -9.557066999999981E+01,      /* K =  96 */
(PID.TID 0000.0001)                -9.657140999999980E+01,      /* K =  97 */
(PID.TID 0000.0001)                -9.757214999999979E+01,      /* K =  98 */
(PID.TID 0000.0001)                -9.857288999999979E+01,      /* K =  99 */
(PID.TID 0000.0001)                -9.957362999999978E+01,      /* K = 100 */
(PID.TID 0000.0001)                -1.005743699999998E+02,      /* K = 101 */
(PID.TID 0000.0001)                -1.015751099999998E+02,      /* K = 102 */
(PID.TID 0000.0001)                -1.025758499999998E+02,      /* K = 103 */
(PID.TID 0000.0001)                -1.035765899999998E+02,      /* K = 104 */
(PID.TID 0000.0001)                -1.045773299999997E+02,      /* K = 105 */
(PID.TID 0000.0001)                -1.055780699999997E+02,      /* K = 106 */
(PID.TID 0000.0001)                -1.065788099999997E+02,      /* K = 107 */
(PID.TID 0000.0001)                -1.075795499999997E+02,      /* K = 108 */
(PID.TID 0000.0001)                -1.085802899999997E+02,      /* K = 109 */
(PID.TID 0000.0001)                -1.095810299999997E+02,      /* K = 110 */
(PID.TID 0000.0001)                -1.105817699999997E+02,      /* K = 111 */
(PID.TID 0000.0001)                -1.115825099999997E+02,      /* K = 112 */
(PID.TID 0000.0001)                -1.125832499999997E+02,      /* K = 113 */
(PID.TID 0000.0001)                -1.135839899999997E+02,      /* K = 114 */
(PID.TID 0000.0001)                -1.145847299999997E+02,      /* K = 115 */
(PID.TID 0000.0001)                -1.155854699999997E+02,      /* K = 116 */
(PID.TID 0000.0001)                -1.165862099999997E+02,      /* K = 117 */
(PID.TID 0000.0001)                -1.175869499999997E+02,      /* K = 118 */
(PID.TID 0000.0001)                -1.185876899999997E+02,      /* K = 119 */
(PID.TID 0000.0001)                -1.195884299999996E+02,      /* K = 120 */
(PID.TID 0000.0001)                -1.205891699999996E+02,      /* K = 121 */
(PID.TID 0000.0001)                -1.215899099999996E+02,      /* K = 122 */
(PID.TID 0000.0001)                -1.225906499999996E+02,      /* K = 123 */
(PID.TID 0000.0001)                -1.235913899999996E+02,      /* K = 124 */
(PID.TID 0000.0001)                -1.245921299999996E+02,      /* K = 125 */
(PID.TID 0000.0001)                -1.255928699999996E+02,      /* K = 126 */
(PID.TID 0000.0001)                -1.265936099999996E+02,      /* K = 127 */
(PID.TID 0000.0001)                -1.275943499999996E+02,      /* K = 128 */
(PID.TID 0000.0001)                -1.285950899999996E+02,      /* K = 129 */
(PID.TID 0000.0001)                -1.295958299999996E+02,      /* K = 130 */
(PID.TID 0000.0001)                -1.305965699999996E+02,      /* K = 131 */
(PID.TID 0000.0001)                -1.315973099999996E+02,      /* K = 132 */
(PID.TID 0000.0001)                -1.325980499999996E+02,      /* K = 133 */
(PID.TID 0000.0001)                -1.335987899999996E+02,      /* K = 134 */
(PID.TID 0000.0001)                -1.345995299999996E+02,      /* K = 135 */
(PID.TID 0000.0001)                -1.356002699999997E+02,      /* K = 136 */
(PID.TID 0000.0001)                -1.366010099999997E+02,      /* K = 137 */
(PID.TID 0000.0001)                -1.376017499999997E+02,      /* K = 138 */
(PID.TID 0000.0001)                -1.386024899999997E+02,      /* K = 139 */
(PID.TID 0000.0001)                -1.396032299999997E+02,      /* K = 140 */
(PID.TID 0000.0001)                -1.406039699999997E+02,      /* K = 141 */
(PID.TID 0000.0001)                -1.416047099999997E+02,      /* K = 142 */
(PID.TID 0000.0001)                -1.426054499999997E+02,      /* K = 143 */
(PID.TID 0000.0001)                -1.436061899999997E+02,      /* K = 144 */
(PID.TID 0000.0001)                -1.446069299999997E+02,      /* K = 145 */
(PID.TID 0000.0001)                -1.456076699999997E+02,      /* K = 146 */
(PID.TID 0000.0001)                -1.466084099999997E+02,      /* K = 147 */
(PID.TID 0000.0001)                -1.476091499999997E+02,      /* K = 148 */
(PID.TID 0000.0001)                -1.486098899999998E+02,      /* K = 149 */
(PID.TID 0000.0001)                -1.496106299999998E+02,      /* K = 150 */
(PID.TID 0000.0001)                -1.506113699999998E+02,      /* K = 151 */
(PID.TID 0000.0001)                -1.516121099999998E+02,      /* K = 152 */
(PID.TID 0000.0001)                -1.526128499999998E+02,      /* K = 153 */
(PID.TID 0000.0001)                -1.536135899999998E+02,      /* K = 154 */
(PID.TID 0000.0001)                -1.546143299999998E+02,      /* K = 155 */
(PID.TID 0000.0001)                -1.556150699999998E+02,      /* K = 156 */
(PID.TID 0000.0001)                -1.566158099999998E+02,      /* K = 157 */
(PID.TID 0000.0001)                -1.576165499999998E+02,      /* K = 158 */
(PID.TID 0000.0001)                -1.586172899999998E+02,      /* K = 159 */
(PID.TID 0000.0001)                -1.596180299999998E+02,      /* K = 160 */
(PID.TID 0000.0001)                -1.606187699999998E+02,      /* K = 161 */
(PID.TID 0000.0001)                -1.616195099999998E+02,      /* K = 162 */
(PID.TID 0000.0001)                -1.626202499999999E+02,      /* K = 163 */
(PID.TID 0000.0001)                -1.636209899999999E+02,      /* K = 164 */
(PID.TID 0000.0001)                -1.646217299999999E+02,      /* K = 165 */
(PID.TID 0000.0001)                -1.656224699999999E+02,      /* K = 166 */
(PID.TID 0000.0001)                -1.666232099999999E+02,      /* K = 167 */
(PID.TID 0000.0001)                -1.676239499999999E+02,      /* K = 168 */
(PID.TID 0000.0001)                -1.686246899999999E+02,      /* K = 169 */
(PID.TID 0000.0001)                -1.696254299999999E+02,      /* K = 170 */
(PID.TID 0000.0001)                -1.706261699999999E+02,      /* K = 171 */
(PID.TID 0000.0001)                -1.716269099999999E+02,      /* K = 172 */
(PID.TID 0000.0001)                -1.726276499999999E+02,      /* K = 173 */
(PID.TID 0000.0001)                -1.736283899999999E+02,      /* K = 174 */
(PID.TID 0000.0001)                -1.746291299999999E+02,      /* K = 175 */
(PID.TID 0000.0001)                -1.756298700000000E+02,      /* K = 176 */
(PID.TID 0000.0001)                -1.766306100000000E+02,      /* K = 177 */
(PID.TID 0000.0001)                -1.776313500000000E+02,      /* K = 178 */
(PID.TID 0000.0001)                -1.786320900000000E+02,      /* K = 179 */
(PID.TID 0000.0001)                -1.796328300000000E+02,      /* K = 180 */
(PID.TID 0000.0001)                -1.806335700000000E+02,      /* K = 181 */
(PID.TID 0000.0001)                -1.816343100000000E+02,      /* K = 182 */
(PID.TID 0000.0001)                -1.826350500000000E+02,      /* K = 183 */
(PID.TID 0000.0001)                -1.836357900000000E+02,      /* K = 184 */
(PID.TID 0000.0001)                -1.846365300000000E+02,      /* K = 185 */
(PID.TID 0000.0001)                -1.856372700000000E+02,      /* K = 186 */
(PID.TID 0000.0001)                -1.866380100000000E+02,      /* K = 187 */
(PID.TID 0000.0001)                -1.876387500000000E+02,      /* K = 188 */
(PID.TID 0000.0001)                -1.886394900000001E+02,      /* K = 189 */
(PID.TID 0000.0001)                -1.896402300000001E+02,      /* K = 190 */
(PID.TID 0000.0001)                -1.906409700000001E+02,      /* K = 191 */
(PID.TID 0000.0001)                -1.916417100000001E+02,      /* K = 192 */
(PID.TID 0000.0001)                -1.926424500000001E+02,      /* K = 193 */
(PID.TID 0000.0001)                -1.936431900000001E+02,      /* K = 194 */
(PID.TID 0000.0001)                -1.946439300000001E+02,      /* K = 195 */
(PID.TID 0000.0001)                -1.956446700000001E+02,      /* K = 196 */
(PID.TID 0000.0001)                -1.966454100000001E+02,      /* K = 197 */
(PID.TID 0000.0001)                -1.976461500000001E+02,      /* K = 198 */
(PID.TID 0000.0001)                -1.986468900000001E+02,      /* K = 199 */
(PID.TID 0000.0001)                -1.996476300000001E+02,      /* K = 200 */
(PID.TID 0000.0001)                -2.006483700000001E+02,      /* K = 201 */
(PID.TID 0000.0001)                -2.016491100000001E+02,      /* K = 202 */
(PID.TID 0000.0001)                -2.026498500000002E+02,      /* K = 203 */
(PID.TID 0000.0001)                -2.036505900000002E+02,      /* K = 204 */
(PID.TID 0000.0001)                -2.046513300000002E+02,      /* K = 205 */
(PID.TID 0000.0001)                -2.056520700000002E+02,      /* K = 206 */
(PID.TID 0000.0001)                -2.066528100000002E+02,      /* K = 207 */
(PID.TID 0000.0001)                -2.076535500000002E+02,      /* K = 208 */
(PID.TID 0000.0001)                -2.086542900000002E+02,      /* K = 209 */
(PID.TID 0000.0001)                -2.096550300000002E+02,      /* K = 210 */
(PID.TID 0000.0001)                -2.106557700000002E+02,      /* K = 211 */
(PID.TID 0000.0001)                -2.116565100000002E+02,      /* K = 212 */
(PID.TID 0000.0001)                -2.126572500000002E+02,      /* K = 213 */
(PID.TID 0000.0001)                -2.136579900000002E+02,      /* K = 214 */
(PID.TID 0000.0001)                -2.146587300000002E+02,      /* K = 215 */
(PID.TID 0000.0001)                -2.156594700000003E+02,      /* K = 216 */
(PID.TID 0000.0001)                -2.166602100000003E+02,      /* K = 217 */
(PID.TID 0000.0001)                -2.176609500000003E+02,      /* K = 218 */
(PID.TID 0000.0001)                -2.186616900000003E+02,      /* K = 219 */
(PID.TID 0000.0001)                -2.196624300000003E+02,      /* K = 220 */
(PID.TID 0000.0001)                -2.206631700000003E+02,      /* K = 221 */
(PID.TID 0000.0001)                -2.216639100000003E+02,      /* K = 222 */
(PID.TID 0000.0001)                -2.226646500000003E+02,      /* K = 223 */
(PID.TID 0000.0001)                -2.236653900000003E+02,      /* K = 224 */
(PID.TID 0000.0001)                -2.246661300000003E+02,      /* K = 225 */
(PID.TID 0000.0001)                -2.256668700000003E+02,      /* K = 226 */
(PID.TID 0000.0001)                -2.266676100000003E+02,      /* K = 227 */
(PID.TID 0000.0001)                -2.276683500000003E+02,      /* K = 228 */
(PID.TID 0000.0001)                -2.286690900000004E+02,      /* K = 229 */
(PID.TID 0000.0001)                -2.296698300000004E+02,      /* K = 230 */
(PID.TID 0000.0001)                -2.306705700000004E+02,      /* K = 231 */
(PID.TID 0000.0001)                -2.316713100000004E+02,      /* K = 232 */
(PID.TID 0000.0001)                -2.326720500000004E+02,      /* K = 233 */
(PID.TID 0000.0001)                -2.336727900000004E+02,      /* K = 234 */
(PID.TID 0000.0001)                -2.346735300000004E+02,      /* K = 235 */
(PID.TID 0000.0001)                -2.356742700000004E+02,      /* K = 236 */
(PID.TID 0000.0001)                -2.366750100000004E+02,      /* K = 237 */
(PID.TID 0000.0001)                -2.376757500000004E+02,      /* K = 238 */
(PID.TID 0000.0001)                -2.386764900000004E+02,      /* K = 239 */
(PID.TID 0000.0001)                -2.396772300000004E+02,      /* K = 240 */
(PID.TID 0000.0001)                -2.406779700000004E+02,      /* K = 241 */
(PID.TID 0000.0001)                -2.416787100000005E+02,      /* K = 242 */
(PID.TID 0000.0001)                -2.426794500000005E+02,      /* K = 243 */
(PID.TID 0000.0001)                -2.436801900000005E+02,      /* K = 244 */
(PID.TID 0000.0001)                -2.446809300000005E+02,      /* K = 245 */
(PID.TID 0000.0001)                -2.456816700000005E+02,      /* K = 246 */
(PID.TID 0000.0001)                -2.466824100000005E+02,      /* K = 247 */
(PID.TID 0000.0001)                -2.476831500000005E+02,      /* K = 248 */
(PID.TID 0000.0001)                -2.486838900000005E+02,      /* K = 249 */
(PID.TID 0000.0001)                -2.496846300000005E+02,      /* K = 250 */
(PID.TID 0000.0001)                -2.506853700000005E+02,      /* K = 251 */
(PID.TID 0000.0001)                -2.516861100000005E+02,      /* K = 252 */
(PID.TID 0000.0001)                -2.526868500000005E+02,      /* K = 253 */
(PID.TID 0000.0001)                -2.536875900000005E+02,      /* K = 254 */
(PID.TID 0000.0001)                -2.546883300000005E+02,      /* K = 255 */
(PID.TID 0000.0001)                -2.556890700000006E+02,      /* K = 256 */
(PID.TID 0000.0001)                -2.566898100000005E+02,      /* K = 257 */
(PID.TID 0000.0001)                -2.576905500000005E+02,      /* K = 258 */
(PID.TID 0000.0001)                -2.586912900000005E+02,      /* K = 259 */
(PID.TID 0000.0001)                -2.596920300000006E+02,      /* K = 260 */
(PID.TID 0000.0001)                -2.606927700000006E+02,      /* K = 261 */
(PID.TID 0000.0001)                -2.616935100000006E+02,      /* K = 262 */
(PID.TID 0000.0001)                -2.626942500000006E+02,      /* K = 263 */
(PID.TID 0000.0001)                -2.636949900000006E+02,      /* K = 264 */
(PID.TID 0000.0001)                -2.646957300000006E+02,      /* K = 265 */
(PID.TID 0000.0001)                -2.656964700000006E+02,      /* K = 266 */
(PID.TID 0000.0001)                -2.666972100000006E+02,      /* K = 267 */
(PID.TID 0000.0001)                -2.676979500000006E+02,      /* K = 268 */
(PID.TID 0000.0001)                -2.686986900000006E+02,      /* K = 269 */
(PID.TID 0000.0001)                -2.696994300000006E+02,      /* K = 270 */
(PID.TID 0000.0001)                -2.707001700000006E+02,      /* K = 271 */
(PID.TID 0000.0001)                -2.717009100000006E+02,      /* K = 272 */
(PID.TID 0000.0001)                -2.727016500000007E+02,      /* K = 273 */
(PID.TID 0000.0001)                -2.737023900000007E+02,      /* K = 274 */
(PID.TID 0000.0001)                -2.747031300000007E+02,      /* K = 275 */
(PID.TID 0000.0001)                -2.757038700000007E+02,      /* K = 276 */
(PID.TID 0000.0001)                -2.767046100000007E+02,      /* K = 277 */
(PID.TID 0000.0001)                -2.777053500000007E+02,      /* K = 278 */
(PID.TID 0000.0001)                -2.787060900000007E+02,      /* K = 279 */
(PID.TID 0000.0001)                -2.797068300000007E+02,      /* K = 280 */
(PID.TID 0000.0001)                -2.807075700000007E+02,      /* K = 281 */
(PID.TID 0000.0001)                -2.817083100000007E+02,      /* K = 282 */
(PID.TID 0000.0001)                -2.827090500000007E+02,      /* K = 283 */
(PID.TID 0000.0001)                -2.837097900000007E+02,      /* K = 284 */
(PID.TID 0000.0001)                -2.847105300000007E+02,      /* K = 285 */
(PID.TID 0000.0001)                -2.857112700000008E+02,      /* K = 286 */
(PID.TID 0000.0001)                -2.867120100000008E+02,      /* K = 287 */
(PID.TID 0000.0001)                -2.877127500000008E+02,      /* K = 288 */
(PID.TID 0000.0001)                -2.887134900000008E+02,      /* K = 289 */
(PID.TID 0000.0001)                -2.897142300000008E+02,      /* K = 290 */
(PID.TID 0000.0001)                -2.907149700000008E+02,      /* K = 291 */
(PID.TID 0000.0001)                -2.917157100000008E+02,      /* K = 292 */
(PID.TID 0000.0001)                -2.927164500000008E+02,      /* K = 293 */
(PID.TID 0000.0001)                -2.937171900000008E+02,      /* K = 294 */
(PID.TID 0000.0001)                -2.947179300000008E+02,      /* K = 295 */
(PID.TID 0000.0001)                -2.957186700000008E+02,      /* K = 296 */
(PID.TID 0000.0001)                -2.967194100000008E+02,      /* K = 297 */
(PID.TID 0000.0001)                -2.977201500000008E+02,      /* K = 298 */
(PID.TID 0000.0001)                -2.987208900000008E+02,      /* K = 299 */
(PID.TID 0000.0001)                -2.997216300000009E+02,      /* K = 300 */
(PID.TID 0000.0001)                -3.007223700000009E+02,      /* K = 301 */
(PID.TID 0000.0001)                -3.017231100000009E+02,      /* K = 302 */
(PID.TID 0000.0001)                -3.027238500000009E+02,      /* K = 303 */
(PID.TID 0000.0001)                -3.037245900000009E+02,      /* K = 304 */
(PID.TID 0000.0001)                -3.047253300000009E+02,      /* K = 305 */
(PID.TID 0000.0001)                -3.057260700000009E+02,      /* K = 306 */
(PID.TID 0000.0001)                -3.067268100000009E+02,      /* K = 307 */
(PID.TID 0000.0001)                -3.077275500000009E+02,      /* K = 308 */
(PID.TID 0000.0001)                -3.087282900000009E+02,      /* K = 309 */
(PID.TID 0000.0001)                -3.097290300000009E+02,      /* K = 310 */
(PID.TID 0000.0001)                -3.107297700000009E+02,      /* K = 311 */
(PID.TID 0000.0001)                -3.117305100000009E+02,      /* K = 312 */
(PID.TID 0000.0001)                -3.127312500000010E+02,      /* K = 313 */
(PID.TID 0000.0001)                -3.137319900000010E+02,      /* K = 314 */
(PID.TID 0000.0001)                -3.147327300000010E+02,      /* K = 315 */
(PID.TID 0000.0001)                -3.157334700000010E+02,      /* K = 316 */
(PID.TID 0000.0001)                -3.167342100000010E+02,      /* K = 317 */
(PID.TID 0000.0001)                -3.177349500000010E+02,      /* K = 318 */
(PID.TID 0000.0001)                -3.187356900000010E+02,      /* K = 319 */
(PID.TID 0000.0001)                -3.197364300000010E+02,      /* K = 320 */
(PID.TID 0000.0001)                -3.207371700000010E+02,      /* K = 321 */
(PID.TID 0000.0001)                -3.217379100000010E+02,      /* K = 322 */
(PID.TID 0000.0001)                -3.227386500000010E+02,      /* K = 323 */
(PID.TID 0000.0001)                -3.237393900000010E+02,      /* K = 324 */
(PID.TID 0000.0001)                -3.247401300000010E+02,      /* K = 325 */
(PID.TID 0000.0001)                -3.257408700000011E+02,      /* K = 326 */
(PID.TID 0000.0001)                -3.267416100000011E+02,      /* K = 327 */
(PID.TID 0000.0001)                -3.277423500000011E+02,      /* K = 328 */
(PID.TID 0000.0001)                -3.287430900000011E+02,      /* K = 329 */
(PID.TID 0000.0001)                -3.297438300000011E+02,      /* K = 330 */
(PID.TID 0000.0001)                -3.307445700000011E+02,      /* K = 331 */
(PID.TID 0000.0001)                -3.317453100000011E+02,      /* K = 332 */
(PID.TID 0000.0001)                -3.327460500000011E+02,      /* K = 333 */
(PID.TID 0000.0001)                -3.337467900000011E+02,      /* K = 334 */
(PID.TID 0000.0001)                -3.347475300000011E+02,      /* K = 335 */
(PID.TID 0000.0001)                -3.357482700000011E+02,      /* K = 336 */
(PID.TID 0000.0001)                -3.367490100000011E+02,      /* K = 337 */
(PID.TID 0000.0001)                -3.377497500000011E+02,      /* K = 338 */
(PID.TID 0000.0001)                -3.387504900000012E+02,      /* K = 339 */
(PID.TID 0000.0001)                -3.397512300000012E+02,      /* K = 340 */
(PID.TID 0000.0001)                -3.407519700000012E+02,      /* K = 341 */
(PID.TID 0000.0001)                -3.417527100000012E+02,      /* K = 342 */
(PID.TID 0000.0001)                -3.427534500000012E+02,      /* K = 343 */
(PID.TID 0000.0001)                -3.437541900000012E+02,      /* K = 344 */
(PID.TID 0000.0001)                -3.447549300000012E+02,      /* K = 345 */
(PID.TID 0000.0001)                -3.457556700000012E+02,      /* K = 346 */
(PID.TID 0000.0001)                -3.467564100000012E+02,      /* K = 347 */
(PID.TID 0000.0001)                -3.477571500000012E+02,      /* K = 348 */
(PID.TID 0000.0001)                -3.487578900000012E+02,      /* K = 349 */
(PID.TID 0000.0001)                -3.497586300000012E+02,      /* K = 350 */
(PID.TID 0000.0001)                -3.507593700000012E+02,      /* K = 351 */
(PID.TID 0000.0001)                -3.517601100000012E+02,      /* K = 352 */
(PID.TID 0000.0001)                -3.527608500000013E+02,      /* K = 353 */
(PID.TID 0000.0001)                -3.537615900000013E+02,      /* K = 354 */
(PID.TID 0000.0001)                -3.547623300000013E+02,      /* K = 355 */
(PID.TID 0000.0001)                -3.557630700000013E+02,      /* K = 356 */
(PID.TID 0000.0001)                -3.567638100000013E+02,      /* K = 357 */
(PID.TID 0000.0001)                -3.577645500000013E+02,      /* K = 358 */
(PID.TID 0000.0001)                -3.587652900000013E+02,      /* K = 359 */
(PID.TID 0000.0001)                -3.597660300000013E+02,      /* K = 360 */
(PID.TID 0000.0001)                -3.607667700000013E+02,      /* K = 361 */
(PID.TID 0000.0001)                -3.617675100000013E+02,      /* K = 362 */
(PID.TID 0000.0001)                -3.627682500000013E+02,      /* K = 363 */
(PID.TID 0000.0001)                -3.637689900000013E+02,      /* K = 364 */
(PID.TID 0000.0001)                -3.647697300000013E+02,      /* K = 365 */
(PID.TID 0000.0001)                -3.657704700000014E+02,      /* K = 366 */
(PID.TID 0000.0001)                -3.667712100000014E+02,      /* K = 367 */
(PID.TID 0000.0001)                -3.677719500000014E+02,      /* K = 368 */
(PID.TID 0000.0001)                -3.687726900000014E+02,      /* K = 369 */
(PID.TID 0000.0001)                -3.697734300000014E+02,      /* K = 370 */
(PID.TID 0000.0001)                -3.707741700000014E+02,      /* K = 371 */
(PID.TID 0000.0001)                -3.717749100000014E+02,      /* K = 372 */
(PID.TID 0000.0001)                -3.727756500000014E+02,      /* K = 373 */
(PID.TID 0000.0001)                -3.737763900000014E+02,      /* K = 374 */
(PID.TID 0000.0001)                -3.747771300000014E+02,      /* K = 375 */
(PID.TID 0000.0001)                -3.757778700000014E+02,      /* K = 376 */
(PID.TID 0000.0001)                -3.767786100000014E+02,      /* K = 377 */
(PID.TID 0000.0001)                -3.777793500000014E+02,      /* K = 378 */
(PID.TID 0000.0001)                -3.787800900000015E+02,      /* K = 379 */
(PID.TID 0000.0001)                -3.797808300000015E+02,      /* K = 380 */
(PID.TID 0000.0001)                -3.807815700000015E+02,      /* K = 381 */
(PID.TID 0000.0001)                -3.817823100000015E+02,      /* K = 382 */
(PID.TID 0000.0001)                -3.827830500000015E+02,      /* K = 383 */
(PID.TID 0000.0001)                -3.837837900000015E+02,      /* K = 384 */
(PID.TID 0000.0001)                -3.847845300000015E+02,      /* K = 385 */
(PID.TID 0000.0001)                -3.857852700000015E+02,      /* K = 386 */
(PID.TID 0000.0001)                -3.867860100000015E+02,      /* K = 387 */
(PID.TID 0000.0001)                -3.877867500000015E+02,      /* K = 388 */
(PID.TID 0000.0001)                -3.887874900000015E+02,      /* K = 389 */
(PID.TID 0000.0001)                -3.897882300000015E+02,      /* K = 390 */
(PID.TID 0000.0001)                -3.907889700000015E+02,      /* K = 391 */
(PID.TID 0000.0001)                -3.917897100000015E+02,      /* K = 392 */
(PID.TID 0000.0001)                -3.927904500000016E+02,      /* K = 393 */
(PID.TID 0000.0001)                -3.937911900000016E+02,      /* K = 394 */
(PID.TID 0000.0001)                -3.947919300000016E+02,      /* K = 395 */
(PID.TID 0000.0001)                -3.957926700000016E+02,      /* K = 396 */
(PID.TID 0000.0001)                -3.967934100000016E+02,      /* K = 397 */
(PID.TID 0000.0001)                -3.977941500000016E+02,      /* K = 398 */
(PID.TID 0000.0001)                -3.987948900000016E+02,      /* K = 399 */
(PID.TID 0000.0001)                -3.997956300000016E+02,      /* K = 400 */
(PID.TID 0000.0001)                -4.007963700000016E+02,      /* K = 401 */
(PID.TID 0000.0001)                -4.017971100000016E+02,      /* K = 402 */
(PID.TID 0000.0001)                -4.027978500000016E+02,      /* K = 403 */
(PID.TID 0000.0001)                -4.037985900000016E+02,      /* K = 404 */
(PID.TID 0000.0001)                -4.047993300000016E+02,      /* K = 405 */
(PID.TID 0000.0001)                -4.058000700000017E+02,      /* K = 406 */
(PID.TID 0000.0001)                -4.068008100000017E+02,      /* K = 407 */
(PID.TID 0000.0001)                -4.078015500000017E+02,      /* K = 408 */
(PID.TID 0000.0001)                -4.088022900000017E+02,      /* K = 409 */
(PID.TID 0000.0001)                -4.098030300000017E+02,      /* K = 410 */
(PID.TID 0000.0001)                -4.108037700000017E+02,      /* K = 411 */
(PID.TID 0000.0001)                -4.118045100000017E+02,      /* K = 412 */
(PID.TID 0000.0001)                -4.128052500000017E+02,      /* K = 413 */
(PID.TID 0000.0001)                -4.138059900000017E+02,      /* K = 414 */
(PID.TID 0000.0001)                -4.148067300000017E+02,      /* K = 415 */
(PID.TID 0000.0001)                -4.158074700000017E+02,      /* K = 416 */
(PID.TID 0000.0001)                -4.168082100000017E+02,      /* K = 417 */
(PID.TID 0000.0001)                -4.178089500000017E+02,      /* K = 418 */
(PID.TID 0000.0001)                -4.188096900000018E+02,      /* K = 419 */
(PID.TID 0000.0001)                -4.198104300000018E+02,      /* K = 420 */
(PID.TID 0000.0001)                -4.208111700000018E+02,      /* K = 421 */
(PID.TID 0000.0001)                -4.218119100000018E+02,      /* K = 422 */
(PID.TID 0000.0001)                -4.228126500000018E+02,      /* K = 423 */
(PID.TID 0000.0001)                -4.238133900000018E+02,      /* K = 424 */
(PID.TID 0000.0001)                -4.248141300000018E+02,      /* K = 425 */
(PID.TID 0000.0001)                -4.258148700000018E+02,      /* K = 426 */
(PID.TID 0000.0001)                -4.268156100000018E+02,      /* K = 427 */
(PID.TID 0000.0001)                -4.278163500000018E+02,      /* K = 428 */
(PID.TID 0000.0001)                -4.288170900000018E+02,      /* K = 429 */
(PID.TID 0000.0001)                -4.298178300000018E+02,      /* K = 430 */
(PID.TID 0000.0001)                -4.308185700000018E+02,      /* K = 431 */
(PID.TID 0000.0001)                -4.318193100000018E+02,      /* K = 432 */
(PID.TID 0000.0001)                -4.328200500000019E+02,      /* K = 433 */
(PID.TID 0000.0001)                -4.338207900000019E+02,      /* K = 434 */
(PID.TID 0000.0001)                -4.348215300000019E+02,      /* K = 435 */
(PID.TID 0000.0001)                -4.358222700000019E+02,      /* K = 436 */
(PID.TID 0000.0001)                -4.368230100000019E+02,      /* K = 437 */
(PID.TID 0000.0001)                -4.378237500000019E+02,      /* K = 438 */
(PID.TID 0000.0001)                -4.388244900000019E+02,      /* K = 439 */
(PID.TID 0000.0001)                -4.398252300000019E+02,      /* K = 440 */
(PID.TID 0000.0001)                -4.408259700000019E+02,      /* K = 441 */
(PID.TID 0000.0001)                -4.418267100000019E+02,      /* K = 442 */
(PID.TID 0000.0001)                -4.428274500000019E+02,      /* K = 443 */
(PID.TID 0000.0001)                -4.438281900000019E+02,      /* K = 444 */
(PID.TID 0000.0001)                -4.448289300000019E+02,      /* K = 445 */
(PID.TID 0000.0001)                -4.458296700000020E+02,      /* K = 446 */
(PID.TID 0000.0001)                -4.468304100000020E+02,      /* K = 447 */
(PID.TID 0000.0001)                -4.478311500000020E+02,      /* K = 448 */
(PID.TID 0000.0001)                -4.488318900000020E+02,      /* K = 449 */
(PID.TID 0000.0001)                -4.498326300000020E+02,      /* K = 450 */
(PID.TID 0000.0001)                -4.508333700000020E+02,      /* K = 451 */
(PID.TID 0000.0001)                -4.518341100000020E+02,      /* K = 452 */
(PID.TID 0000.0001)                -4.528348500000020E+02,      /* K = 453 */
(PID.TID 0000.0001)                -4.538355900000020E+02,      /* K = 454 */
(PID.TID 0000.0001)                -4.548363300000020E+02,      /* K = 455 */
(PID.TID 0000.0001)                -4.558370700000020E+02,      /* K = 456 */
(PID.TID 0000.0001)                -4.568378100000020E+02,      /* K = 457 */
(PID.TID 0000.0001)                -4.578385500000020E+02,      /* K = 458 */
(PID.TID 0000.0001)                -4.588392900000021E+02,      /* K = 459 */
(PID.TID 0000.0001)                -4.598400300000021E+02,      /* K = 460 */
(PID.TID 0000.0001)                -4.608407700000021E+02,      /* K = 461 */
(PID.TID 0000.0001)                -4.618415100000021E+02,      /* K = 462 */
(PID.TID 0000.0001)                -4.628422500000021E+02,      /* K = 463 */
(PID.TID 0000.0001)                -4.638429900000021E+02,      /* K = 464 */
(PID.TID 0000.0001)                -4.648437300000021E+02,      /* K = 465 */
(PID.TID 0000.0001)                -4.658444700000021E+02,      /* K = 466 */
(PID.TID 0000.0001)                -4.668452100000021E+02,      /* K = 467 */
(PID.TID 0000.0001)                -4.678459500000021E+02,      /* K = 468 */
(PID.TID 0000.0001)                -4.688466900000021E+02,      /* K = 469 */
(PID.TID 0000.0001)                -4.698474300000021E+02,      /* K = 470 */
(PID.TID 0000.0001)                -4.708481700000021E+02,      /* K = 471 */
(PID.TID 0000.0001)                -4.718489100000021E+02,      /* K = 472 */
(PID.TID 0000.0001)                -4.728496500000022E+02,      /* K = 473 */
(PID.TID 0000.0001)                -4.738503900000022E+02,      /* K = 474 */
(PID.TID 0000.0001)                -4.748511300000022E+02,      /* K = 475 */
(PID.TID 0000.0001)                -4.758518700000022E+02,      /* K = 476 */
(PID.TID 0000.0001)                -4.768526100000022E+02,      /* K = 477 */
(PID.TID 0000.0001)                -4.778533500000022E+02,      /* K = 478 */
(PID.TID 0000.0001)                -4.788540900000022E+02,      /* K = 479 */
(PID.TID 0000.0001)                -4.798548300000022E+02,      /* K = 480 */
(PID.TID 0000.0001)                -4.808555700000022E+02,      /* K = 481 */
(PID.TID 0000.0001)                -4.818563100000022E+02,      /* K = 482 */
(PID.TID 0000.0001)                -4.828570500000022E+02,      /* K = 483 */
(PID.TID 0000.0001)                -4.838577900000022E+02,      /* K = 484 */
(PID.TID 0000.0001)                -4.848585300000022E+02,      /* K = 485 */
(PID.TID 0000.0001)                -4.858592700000023E+02,      /* K = 486 */
(PID.TID 0000.0001)                -4.868600100000023E+02,      /* K = 487 */
(PID.TID 0000.0001)                -4.878607500000023E+02,      /* K = 488 */
(PID.TID 0000.0001)                -4.888614900000023E+02,      /* K = 489 */
(PID.TID 0000.0001)                -4.898622300000023E+02,      /* K = 490 */
(PID.TID 0000.0001)                -4.908629700000023E+02,      /* K = 491 */
(PID.TID 0000.0001)                -4.918637100000023E+02,      /* K = 492 */
(PID.TID 0000.0001)                -4.928644500000023E+02,      /* K = 493 */
(PID.TID 0000.0001)                -4.938651900000023E+02,      /* K = 494 */
(PID.TID 0000.0001)                -4.948659300000023E+02,      /* K = 495 */
(PID.TID 0000.0001)                -4.958666700000023E+02,      /* K = 496 */
(PID.TID 0000.0001)                -4.968674100000023E+02,      /* K = 497 */
(PID.TID 0000.0001)                -4.978681500000023E+02,      /* K = 498 */
(PID.TID 0000.0001)                -4.988688900000024E+02,      /* K = 499 */
(PID.TID 0000.0001)                -4.998696300000024E+02,      /* K = 500 */
(PID.TID 0000.0001)                -5.008703700000024E+02,      /* K = 501 */
(PID.TID 0000.0001)                -5.018711100000024E+02,      /* K = 502 */
(PID.TID 0000.0001)                -5.028718500000024E+02,      /* K = 503 */
(PID.TID 0000.0001)                -5.038725900000024E+02,      /* K = 504 */
(PID.TID 0000.0001)                -5.048733300000024E+02,      /* K = 505 */
(PID.TID 0000.0001)                -5.058740700000024E+02,      /* K = 506 */
(PID.TID 0000.0001)                -5.068748100000024E+02,      /* K = 507 */
(PID.TID 0000.0001)                -5.078755500000024E+02,      /* K = 508 */
(PID.TID 0000.0001)                -5.088762900000024E+02,      /* K = 509 */
(PID.TID 0000.0001)                -5.098770300000024E+02,      /* K = 510 */
(PID.TID 0000.0001)                -5.108777700000024E+02,      /* K = 511 */
(PID.TID 0000.0001)                -5.118785100000024E+02,      /* K = 512 */
(PID.TID 0000.0001)                -5.128792500000025E+02,      /* K = 513 */
(PID.TID 0000.0001)                -5.138799900000024E+02,      /* K = 514 */
(PID.TID 0000.0001)                -5.148807300000024E+02,      /* K = 515 */
(PID.TID 0000.0001)                -5.158814700000023E+02,      /* K = 516 */
(PID.TID 0000.0001)                -5.168822100000023E+02,      /* K = 517 */
(PID.TID 0000.0001)                -5.178829500000022E+02,      /* K = 518 */
(PID.TID 0000.0001)                -5.188836900000022E+02,      /* K = 519 */
(PID.TID 0000.0001)                -5.198844300000021E+02,      /* K = 520 */
(PID.TID 0000.0001)                -5.208851700000021E+02,      /* K = 521 */
(PID.TID 0000.0001)                -5.218859100000020E+02,      /* K = 522 */
(PID.TID 0000.0001)                -5.228866500000020E+02,      /* K = 523 */
(PID.TID 0000.0001)                -5.238873900000019E+02,      /* K = 524 */
(PID.TID 0000.0001)                -5.248881300000019E+02,      /* K = 525 */
(PID.TID 0000.0001)                -5.258888700000018E+02,      /* K = 526 */
(PID.TID 0000.0001)                -5.268896100000018E+02,      /* K = 527 */
(PID.TID 0000.0001)                -5.278903500000017E+02,      /* K = 528 */
(PID.TID 0000.0001)                -5.288910900000017E+02,      /* K = 529 */
(PID.TID 0000.0001)                -5.298918300000016E+02,      /* K = 530 */
(PID.TID 0000.0001)                -5.308925700000016E+02,      /* K = 531 */
(PID.TID 0000.0001)                -5.318933100000015E+02,      /* K = 532 */
(PID.TID 0000.0001)                -5.328940500000015E+02,      /* K = 533 */
(PID.TID 0000.0001)                -5.338947900000014E+02,      /* K = 534 */
(PID.TID 0000.0001)                -5.348955300000014E+02,      /* K = 535 */
(PID.TID 0000.0001)                -5.358962700000013E+02,      /* K = 536 */
(PID.TID 0000.0001)                -5.368970100000013E+02,      /* K = 537 */
(PID.TID 0000.0001)                -5.378977500000012E+02,      /* K = 538 */
(PID.TID 0000.0001)                -5.388984900000012E+02,      /* K = 539 */
(PID.TID 0000.0001)                -5.398992300000011E+02,      /* K = 540 */
(PID.TID 0000.0001)                -5.408999700000011E+02,      /* K = 541 */
(PID.TID 0000.0001)                -5.419007100000010E+02,      /* K = 542 */
(PID.TID 0000.0001)                -5.429014500000010E+02,      /* K = 543 */
(PID.TID 0000.0001)                -5.439021900000009E+02,      /* K = 544 */
(PID.TID 0000.0001)                -5.449029300000009E+02,      /* K = 545 */
(PID.TID 0000.0001)                -5.459036700000008E+02,      /* K = 546 */
(PID.TID 0000.0001)                -5.469044100000008E+02,      /* K = 547 */
(PID.TID 0000.0001)                -5.479051500000007E+02,      /* K = 548 */
(PID.TID 0000.0001)                -5.489058900000007E+02,      /* K = 549 */
(PID.TID 0000.0001)                -5.499066300000006E+02,      /* K = 550 */
(PID.TID 0000.0001)                -5.509073700000006E+02,      /* K = 551 */
(PID.TID 0000.0001)                -5.519081100000005E+02,      /* K = 552 */
(PID.TID 0000.0001)                -5.529088500000005E+02,      /* K = 553 */
(PID.TID 0000.0001)                -5.539095900000004E+02,      /* K = 554 */
(PID.TID 0000.0001)                -5.549103300000004E+02,      /* K = 555 */
(PID.TID 0000.0001)                -5.559110700000003E+02,      /* K = 556 */
(PID.TID 0000.0001)                -5.569118100000003E+02,      /* K = 557 */
(PID.TID 0000.0001)                -5.579125500000002E+02,      /* K = 558 */
(PID.TID 0000.0001)                -5.589132900000002E+02,      /* K = 559 */
(PID.TID 0000.0001)                -5.599140300000001E+02,      /* K = 560 */
(PID.TID 0000.0001)                -5.609147700000001E+02,      /* K = 561 */
(PID.TID 0000.0001)                -5.619155100000000E+02,      /* K = 562 */
(PID.TID 0000.0001)                -5.629162500000000E+02,      /* K = 563 */
(PID.TID 0000.0001)                -5.639169899999999E+02,      /* K = 564 */
(PID.TID 0000.0001)                -5.649177299999999E+02,      /* K = 565 */
(PID.TID 0000.0001)                -5.659184699999998E+02,      /* K = 566 */
(PID.TID 0000.0001)                -5.669192099999998E+02,      /* K = 567 */
(PID.TID 0000.0001)                -5.679199499999997E+02,      /* K = 568 */
(PID.TID 0000.0001)                -5.689206899999997E+02,      /* K = 569 */
(PID.TID 0000.0001)                -5.699214299999996E+02,      /* K = 570 */
(PID.TID 0000.0001)                -5.709221699999996E+02,      /* K = 571 */
(PID.TID 0000.0001)                -5.719229099999995E+02,      /* K = 572 */
(PID.TID 0000.0001)                -5.729236499999995E+02,      /* K = 573 */
(PID.TID 0000.0001)                -5.739243899999994E+02,      /* K = 574 */
(PID.TID 0000.0001)                -5.749251299999994E+02,      /* K = 575 */
(PID.TID 0000.0001)                -5.759258699999993E+02,      /* K = 576 */
(PID.TID 0000.0001)                -5.769266099999993E+02,      /* K = 577 */
(PID.TID 0000.0001)                -5.779273499999993E+02,      /* K = 578 */
(PID.TID 0000.0001)                -5.789280899999992E+02,      /* K = 579 */
(PID.TID 0000.0001)                -5.799288299999992E+02,      /* K = 580 */
(PID.TID 0000.0001)                -5.809295699999991E+02,      /* K = 581 */
(PID.TID 0000.0001)                -5.819303099999991E+02,      /* K = 582 */
(PID.TID 0000.0001)                -5.829310499999990E+02,      /* K = 583 */
(PID.TID 0000.0001)                -5.839317899999990E+02,      /* K = 584 */
(PID.TID 0000.0001)                -5.849325299999989E+02,      /* K = 585 */
(PID.TID 0000.0001)                -5.859332699999989E+02,      /* K = 586 */
(PID.TID 0000.0001)                -5.869340099999988E+02,      /* K = 587 */
(PID.TID 0000.0001)                -5.879347499999988E+02,      /* K = 588 */
(PID.TID 0000.0001)                -5.889354899999987E+02,      /* K = 589 */
(PID.TID 0000.0001)                -5.899362299999987E+02,      /* K = 590 */
(PID.TID 0000.0001)                -5.909369699999986E+02,      /* K = 591 */
(PID.TID 0000.0001)                -5.919377099999986E+02,      /* K = 592 */
(PID.TID 0000.0001)                -5.929384499999985E+02,      /* K = 593 */
(PID.TID 0000.0001)                -5.939391899999985E+02,      /* K = 594 */
(PID.TID 0000.0001)                -5.949399299999984E+02,      /* K = 595 */
(PID.TID 0000.0001)                -5.959406699999984E+02,      /* K = 596 */
(PID.TID 0000.0001)                -5.969414099999983E+02,      /* K = 597 */
(PID.TID 0000.0001)                -5.979421499999983E+02,      /* K = 598 */
(PID.TID 0000.0001)                -5.989428899999982E+02,      /* K = 599 */
(PID.TID 0000.0001)                -5.999436299999982E+02,      /* K = 600 */
(PID.TID 0000.0001)                -6.009443699999981E+02,      /* K = 601 */
(PID.TID 0000.0001)                -6.019451099999981E+02,      /* K = 602 */
(PID.TID 0000.0001)                -6.029458499999980E+02,      /* K = 603 */
(PID.TID 0000.0001)                -6.039465899999980E+02,      /* K = 604 */
(PID.TID 0000.0001)                -6.049473299999979E+02,      /* K = 605 */
(PID.TID 0000.0001)                -6.059480699999979E+02,      /* K = 606 */
(PID.TID 0000.0001)                -6.069488099999978E+02,      /* K = 607 */
(PID.TID 0000.0001)                -6.079495499999978E+02,      /* K = 608 */
(PID.TID 0000.0001)                -6.089502899999977E+02,      /* K = 609 */
(PID.TID 0000.0001)                -6.099510299999977E+02,      /* K = 610 */
(PID.TID 0000.0001)                -6.109517699999976E+02,      /* K = 611 */
(PID.TID 0000.0001)                -6.119525099999976E+02,      /* K = 612 */
(PID.TID 0000.0001)                -6.129532499999975E+02,      /* K = 613 */
(PID.TID 0000.0001)                -6.139539899999975E+02,      /* K = 614 */
(PID.TID 0000.0001)                -6.149547299999974E+02,      /* K = 615 */
(PID.TID 0000.0001)                -6.159554699999974E+02,      /* K = 616 */
(PID.TID 0000.0001)                -6.169562099999973E+02,      /* K = 617 */
(PID.TID 0000.0001)                -6.179569499999973E+02,      /* K = 618 */
(PID.TID 0000.0001)                -6.189576899999972E+02,      /* K = 619 */
(PID.TID 0000.0001)                -6.199584299999972E+02,      /* K = 620 */
(PID.TID 0000.0001)                -6.209591699999971E+02,      /* K = 621 */
(PID.TID 0000.0001)                -6.219599099999971E+02,      /* K = 622 */
(PID.TID 0000.0001)                -6.229606499999970E+02,      /* K = 623 */
(PID.TID 0000.0001)                -6.239613899999970E+02,      /* K = 624 */
(PID.TID 0000.0001)                -6.249621299999969E+02,      /* K = 625 */
(PID.TID 0000.0001)                -6.259628699999969E+02,      /* K = 626 */
(PID.TID 0000.0001)                -6.269636099999968E+02,      /* K = 627 */
(PID.TID 0000.0001)                -6.279643499999968E+02,      /* K = 628 */
(PID.TID 0000.0001)                -6.289650899999967E+02,      /* K = 629 */
(PID.TID 0000.0001)                -6.299658299999967E+02,      /* K = 630 */
(PID.TID 0000.0001)                -6.309665699999966E+02,      /* K = 631 */
(PID.TID 0000.0001)                -6.319673099999966E+02,      /* K = 632 */
(PID.TID 0000.0001)                -6.329680499999965E+02,      /* K = 633 */
(PID.TID 0000.0001)                -6.339687899999965E+02,      /* K = 634 */
(PID.TID 0000.0001)                -6.349695299999964E+02,      /* K = 635 */
(PID.TID 0000.0001)                -6.359702699999964E+02,      /* K = 636 */
(PID.TID 0000.0001)                -6.369710099999963E+02,      /* K = 637 */
(PID.TID 0000.0001)                -6.379717499999963E+02,      /* K = 638 */
(PID.TID 0000.0001)                -6.389724899999962E+02,      /* K = 639 */
(PID.TID 0000.0001)                -6.399732299999962E+02,      /* K = 640 */
(PID.TID 0000.0001)                -6.409739699999961E+02,      /* K = 641 */
(PID.TID 0000.0001)                -6.419747099999961E+02,      /* K = 642 */
(PID.TID 0000.0001)                -6.429754499999960E+02,      /* K = 643 */
(PID.TID 0000.0001)                -6.439761899999960E+02,      /* K = 644 */
(PID.TID 0000.0001)                -6.449769299999959E+02,      /* K = 645 */
(PID.TID 0000.0001)                -6.459776699999959E+02,      /* K = 646 */
(PID.TID 0000.0001)                -6.469784099999958E+02,      /* K = 647 */
(PID.TID 0000.0001)                -6.479791499999958E+02,      /* K = 648 */
(PID.TID 0000.0001)                -6.489798899999957E+02,      /* K = 649 */
(PID.TID 0000.0001)                -6.499806299999957E+02,      /* K = 650 */
(PID.TID 0000.0001)                -6.509813699999956E+02,      /* K = 651 */
(PID.TID 0000.0001)                -6.519821099999956E+02,      /* K = 652 */
(PID.TID 0000.0001)                -6.529828499999956E+02,      /* K = 653 */
(PID.TID 0000.0001)                -6.539835899999955E+02,      /* K = 654 */
(PID.TID 0000.0001)                -6.549843299999955E+02,      /* K = 655 */
(PID.TID 0000.0001)                -6.559850699999954E+02,      /* K = 656 */
(PID.TID 0000.0001)                -6.569858099999954E+02,      /* K = 657 */
(PID.TID 0000.0001)                -6.579865499999953E+02,      /* K = 658 */
(PID.TID 0000.0001)                -6.589872899999953E+02,      /* K = 659 */
(PID.TID 0000.0001)                -6.599880299999952E+02,      /* K = 660 */
(PID.TID 0000.0001)                -6.609887699999952E+02,      /* K = 661 */
(PID.TID 0000.0001)                -6.619895099999951E+02,      /* K = 662 */
(PID.TID 0000.0001)                -6.629902499999951E+02,      /* K = 663 */
(PID.TID 0000.0001)                -6.639909899999950E+02,      /* K = 664 */
(PID.TID 0000.0001)                -6.649917299999950E+02,      /* K = 665 */
(PID.TID 0000.0001)                -6.659924699999949E+02,      /* K = 666 */
(PID.TID 0000.0001)                -6.669932099999949E+02,      /* K = 667 */
(PID.TID 0000.0001)                -6.679939499999948E+02,      /* K = 668 */
(PID.TID 0000.0001)                -6.689946899999948E+02,      /* K = 669 */
(PID.TID 0000.0001)                -6.699954299999947E+02,      /* K = 670 */
(PID.TID 0000.0001)                -6.709961699999947E+02,      /* K = 671 */
(PID.TID 0000.0001)                -6.719969099999946E+02,      /* K = 672 */
(PID.TID 0000.0001)                -6.729976499999946E+02,      /* K = 673 */
(PID.TID 0000.0001)                -6.739983899999945E+02,      /* K = 674 */
(PID.TID 0000.0001)                -6.749991299999945E+02,      /* K = 675 */
(PID.TID 0000.0001)                -6.759998699999944E+02,      /* K = 676 */
(PID.TID 0000.0001)                -6.770006099999944E+02,      /* K = 677 */
(PID.TID 0000.0001)                -6.780013499999943E+02,      /* K = 678 */
(PID.TID 0000.0001)                -6.790020899999943E+02,      /* K = 679 */
(PID.TID 0000.0001)                -6.800028299999942E+02,      /* K = 680 */
(PID.TID 0000.0001)                -6.810035699999942E+02,      /* K = 681 */
(PID.TID 0000.0001)                -6.820043099999941E+02,      /* K = 682 */
(PID.TID 0000.0001)                -6.830050499999941E+02,      /* K = 683 */
(PID.TID 0000.0001)                -6.840057899999940E+02,      /* K = 684 */
(PID.TID 0000.0001)                -6.850065299999940E+02,      /* K = 685 */
(PID.TID 0000.0001)                -6.860072699999939E+02,      /* K = 686 */
(PID.TID 0000.0001)                -6.870080099999939E+02,      /* K = 687 */
(PID.TID 0000.0001)                -6.880087499999938E+02,      /* K = 688 */
(PID.TID 0000.0001)                -6.890094899999938E+02,      /* K = 689 */
(PID.TID 0000.0001)                -6.900102299999937E+02,      /* K = 690 */
(PID.TID 0000.0001)                -6.910109699999937E+02,      /* K = 691 */
(PID.TID 0000.0001)                -6.920117099999936E+02,      /* K = 692 */
(PID.TID 0000.0001)                -6.930124499999936E+02,      /* K = 693 */
(PID.TID 0000.0001)                -6.940131899999935E+02,      /* K = 694 */
(PID.TID 0000.0001)                -6.950139299999935E+02,      /* K = 695 */
(PID.TID 0000.0001)                -6.960146699999934E+02,      /* K = 696 */
(PID.TID 0000.0001)                -6.970154099999934E+02,      /* K = 697 */
(PID.TID 0000.0001)                -6.980161499999933E+02,      /* K = 698 */
(PID.TID 0000.0001)                -6.990168899999933E+02,      /* K = 699 */
(PID.TID 0000.0001)                -7.000176299999932E+02,      /* K = 700 */
(PID.TID 0000.0001)                -7.010183699999932E+02,      /* K = 701 */
(PID.TID 0000.0001)                -7.020191099999931E+02,      /* K = 702 */
(PID.TID 0000.0001)                -7.030198499999931E+02,      /* K = 703 */
(PID.TID 0000.0001)                -7.040205899999930E+02,      /* K = 704 */
(PID.TID 0000.0001)                -7.050213299999930E+02,      /* K = 705 */
(PID.TID 0000.0001)                -7.060220699999929E+02,      /* K = 706 */
(PID.TID 0000.0001)                -7.070228099999929E+02,      /* K = 707 */
(PID.TID 0000.0001)                -7.080235499999928E+02,      /* K = 708 */
(PID.TID 0000.0001)                -7.090242899999928E+02,      /* K = 709 */
(PID.TID 0000.0001)                -7.100250299999927E+02,      /* K = 710 */
(PID.TID 0000.0001)                -7.110257699999927E+02,      /* K = 711 */
(PID.TID 0000.0001)                -7.120265099999926E+02,      /* K = 712 */
(PID.TID 0000.0001)                -7.130272499999926E+02,      /* K = 713 */
(PID.TID 0000.0001)                -7.140279899999925E+02,      /* K = 714 */
(PID.TID 0000.0001)                -7.150287299999925E+02,      /* K = 715 */
(PID.TID 0000.0001)                -7.160294699999924E+02,      /* K = 716 */
(PID.TID 0000.0001)                -7.170302099999924E+02,      /* K = 717 */
(PID.TID 0000.0001)                -7.180309499999923E+02,      /* K = 718 */
(PID.TID 0000.0001)                -7.190316899999923E+02,      /* K = 719 */
(PID.TID 0000.0001)                -7.200324299999922E+02,      /* K = 720 */
(PID.TID 0000.0001)                -7.210331699999922E+02,      /* K = 721 */
(PID.TID 0000.0001)                -7.220339099999921E+02,      /* K = 722 */
(PID.TID 0000.0001)                -7.230346499999921E+02,      /* K = 723 */
(PID.TID 0000.0001)                -7.240353899999920E+02,      /* K = 724 */
(PID.TID 0000.0001)                -7.250361299999920E+02,      /* K = 725 */
(PID.TID 0000.0001)                -7.260368699999919E+02,      /* K = 726 */
(PID.TID 0000.0001)                -7.270376099999919E+02,      /* K = 727 */
(PID.TID 0000.0001)                -7.280383499999919E+02,      /* K = 728 */
(PID.TID 0000.0001)                -7.290390899999918E+02,      /* K = 729 */
(PID.TID 0000.0001)                -7.300398299999918E+02,      /* K = 730 */
(PID.TID 0000.0001)                -7.310405699999917E+02,      /* K = 731 */
(PID.TID 0000.0001)                -7.320413099999917E+02,      /* K = 732 */
(PID.TID 0000.0001)                -7.330420499999916E+02,      /* K = 733 */
(PID.TID 0000.0001)                -7.340427899999916E+02,      /* K = 734 */
(PID.TID 0000.0001)                -7.350435299999915E+02,      /* K = 735 */
(PID.TID 0000.0001)                -7.360442699999915E+02,      /* K = 736 */
(PID.TID 0000.0001)                -7.370450099999914E+02,      /* K = 737 */
(PID.TID 0000.0001)                -7.380457499999914E+02,      /* K = 738 */
(PID.TID 0000.0001)                -7.390464899999913E+02,      /* K = 739 */
(PID.TID 0000.0001)                -7.400472299999913E+02,      /* K = 740 */
(PID.TID 0000.0001)                -7.410479699999912E+02,      /* K = 741 */
(PID.TID 0000.0001)                -7.420487099999912E+02,      /* K = 742 */
(PID.TID 0000.0001)                -7.430494499999911E+02,      /* K = 743 */
(PID.TID 0000.0001)                -7.440501899999911E+02,      /* K = 744 */
(PID.TID 0000.0001)                -7.450509299999910E+02,      /* K = 745 */
(PID.TID 0000.0001)                -7.460516699999910E+02,      /* K = 746 */
(PID.TID 0000.0001)                -7.470524099999909E+02,      /* K = 747 */
(PID.TID 0000.0001)                -7.480531499999909E+02,      /* K = 748 */
(PID.TID 0000.0001)                -7.490538899999908E+02,      /* K = 749 */
(PID.TID 0000.0001)                -7.500546299999908E+02,      /* K = 750 */
(PID.TID 0000.0001)                -7.510553699999907E+02,      /* K = 751 */
(PID.TID 0000.0001)                -7.520561099999907E+02,      /* K = 752 */
(PID.TID 0000.0001)                -7.530568499999906E+02,      /* K = 753 */
(PID.TID 0000.0001)                -7.540575899999906E+02,      /* K = 754 */
(PID.TID 0000.0001)                -7.550583299999905E+02,      /* K = 755 */
(PID.TID 0000.0001)                -7.560590699999905E+02,      /* K = 756 */
(PID.TID 0000.0001)                -7.570598099999904E+02,      /* K = 757 */
(PID.TID 0000.0001)                -7.580605499999904E+02,      /* K = 758 */
(PID.TID 0000.0001)                -7.590612899999903E+02,      /* K = 759 */
(PID.TID 0000.0001)                -7.600620299999903E+02,      /* K = 760 */
(PID.TID 0000.0001)                -7.610627699999902E+02,      /* K = 761 */
(PID.TID 0000.0001)                -7.620635099999902E+02,      /* K = 762 */
(PID.TID 0000.0001)                -7.630642499999901E+02,      /* K = 763 */
(PID.TID 0000.0001)                -7.640649899999901E+02,      /* K = 764 */
(PID.TID 0000.0001)                -7.650657299999900E+02,      /* K = 765 */
(PID.TID 0000.0001)                -7.660664699999900E+02,      /* K = 766 */
(PID.TID 0000.0001)                -7.670672099999899E+02,      /* K = 767 */
(PID.TID 0000.0001)                -7.680679499999899E+02,      /* K = 768 */
(PID.TID 0000.0001)                -7.690686899999898E+02,      /* K = 769 */
(PID.TID 0000.0001)                -7.700694299999898E+02,      /* K = 770 */
(PID.TID 0000.0001)                -7.710701699999897E+02,      /* K = 771 */
(PID.TID 0000.0001)                -7.720709099999897E+02,      /* K = 772 */
(PID.TID 0000.0001)                -7.730716499999896E+02,      /* K = 773 */
(PID.TID 0000.0001)                -7.740723899999896E+02,      /* K = 774 */
(PID.TID 0000.0001)                -7.750731299999895E+02,      /* K = 775 */
(PID.TID 0000.0001)                -7.760738699999895E+02,      /* K = 776 */
(PID.TID 0000.0001)                -7.770746099999894E+02,      /* K = 777 */
(PID.TID 0000.0001)                -7.780753499999894E+02,      /* K = 778 */
(PID.TID 0000.0001)                -7.790760899999893E+02,      /* K = 779 */
(PID.TID 0000.0001)                -7.800768299999893E+02,      /* K = 780 */
(PID.TID 0000.0001)                -7.810775699999892E+02,      /* K = 781 */
(PID.TID 0000.0001)                -7.820783099999892E+02,      /* K = 782 */
(PID.TID 0000.0001)                -7.830790499999891E+02,      /* K = 783 */
(PID.TID 0000.0001)                -7.840797899999891E+02,      /* K = 784 */
(PID.TID 0000.0001)                -7.850805299999890E+02,      /* K = 785 */
(PID.TID 0000.0001)                -7.860812699999890E+02,      /* K = 786 */
(PID.TID 0000.0001)                -7.870820099999889E+02,      /* K = 787 */
(PID.TID 0000.0001)                -7.880827499999889E+02,      /* K = 788 */
(PID.TID 0000.0001)                -7.890834899999888E+02,      /* K = 789 */
(PID.TID 0000.0001)                -7.900842299999888E+02,      /* K = 790 */
(PID.TID 0000.0001)                -7.910849699999887E+02,      /* K = 791 */
(PID.TID 0000.0001)                -7.920857099999887E+02,      /* K = 792 */
(PID.TID 0000.0001)                -7.930864499999886E+02,      /* K = 793 */
(PID.TID 0000.0001)                -7.940871899999886E+02,      /* K = 794 */
(PID.TID 0000.0001)                -7.950879299999885E+02,      /* K = 795 */
(PID.TID 0000.0001)                -7.960886699999885E+02,      /* K = 796 */
(PID.TID 0000.0001)                -7.970894099999884E+02,      /* K = 797 */
(PID.TID 0000.0001)                -7.980901499999884E+02,      /* K = 798 */
(PID.TID 0000.0001)                -7.990908899999883E+02,      /* K = 799 */
(PID.TID 0000.0001)                -8.000916299999883E+02,      /* K = 800 */
(PID.TID 0000.0001)                -8.010923699999883E+02,      /* K = 801 */
(PID.TID 0000.0001)                -8.020931099999882E+02,      /* K = 802 */
(PID.TID 0000.0001)                -8.030938499999882E+02,      /* K = 803 */
(PID.TID 0000.0001)                -8.040945899999881E+02,      /* K = 804 */
(PID.TID 0000.0001)                -8.050953299999881E+02,      /* K = 805 */
(PID.TID 0000.0001)                -8.060960699999880E+02,      /* K = 806 */
(PID.TID 0000.0001)                -8.070968099999880E+02,      /* K = 807 */
(PID.TID 0000.0001)                -8.080975499999879E+02,      /* K = 808 */
(PID.TID 0000.0001)                -8.090982899999879E+02,      /* K = 809 */
(PID.TID 0000.0001)                -8.100990299999878E+02,      /* K = 810 */
(PID.TID 0000.0001)                -8.110997699999878E+02,      /* K = 811 */
(PID.TID 0000.0001)                -8.121005099999877E+02,      /* K = 812 */
(PID.TID 0000.0001)                -8.131012499999877E+02,      /* K = 813 */
(PID.TID 0000.0001)                -8.141019899999876E+02,      /* K = 814 */
(PID.TID 0000.0001)                -8.151027299999876E+02,      /* K = 815 */
(PID.TID 0000.0001)                -8.161034699999875E+02,      /* K = 816 */
(PID.TID 0000.0001)                -8.171042099999875E+02,      /* K = 817 */
(PID.TID 0000.0001)                -8.181049499999874E+02,      /* K = 818 */
(PID.TID 0000.0001)                -8.191056899999874E+02,      /* K = 819 */
(PID.TID 0000.0001)                -8.201064299999873E+02,      /* K = 820 */
(PID.TID 0000.0001)                -8.211071699999873E+02,      /* K = 821 */
(PID.TID 0000.0001)                -8.221079099999872E+02,      /* K = 822 */
(PID.TID 0000.0001)                -8.231086499999872E+02,      /* K = 823 */
(PID.TID 0000.0001)                -8.241093899999871E+02,      /* K = 824 */
(PID.TID 0000.0001)                -8.251101299999871E+02,      /* K = 825 */
(PID.TID 0000.0001)                -8.261108699999870E+02,      /* K = 826 */
(PID.TID 0000.0001)                -8.271116099999870E+02,      /* K = 827 */
(PID.TID 0000.0001)                -8.281123499999869E+02,      /* K = 828 */
(PID.TID 0000.0001)                -8.291130899999869E+02,      /* K = 829 */
(PID.TID 0000.0001)                -8.301138299999868E+02,      /* K = 830 */
(PID.TID 0000.0001)                -8.311145699999868E+02,      /* K = 831 */
(PID.TID 0000.0001)                -8.321153099999867E+02,      /* K = 832 */
(PID.TID 0000.0001)                -8.331160499999867E+02,      /* K = 833 */
(PID.TID 0000.0001)                -8.341167899999866E+02,      /* K = 834 */
(PID.TID 0000.0001)                -8.351175299999866E+02,      /* K = 835 */
(PID.TID 0000.0001)                -8.361182699999865E+02,      /* K = 836 */
(PID.TID 0000.0001)                -8.371190099999865E+02,      /* K = 837 */
(PID.TID 0000.0001)                -8.381197499999864E+02,      /* K = 838 */
(PID.TID 0000.0001)                -8.391204899999864E+02,      /* K = 839 */
(PID.TID 0000.0001)                -8.401212299999863E+02,      /* K = 840 */
(PID.TID 0000.0001)                -8.411219699999863E+02,      /* K = 841 */
(PID.TID 0000.0001)                -8.421227099999862E+02,      /* K = 842 */
(PID.TID 0000.0001)                -8.431234499999862E+02,      /* K = 843 */
(PID.TID 0000.0001)                -8.441241899999861E+02,      /* K = 844 */
(PID.TID 0000.0001)                -8.451249299999861E+02,      /* K = 845 */
(PID.TID 0000.0001)                -8.461256699999860E+02,      /* K = 846 */
(PID.TID 0000.0001)                -8.471264099999860E+02,      /* K = 847 */
(PID.TID 0000.0001)                -8.481271499999859E+02,      /* K = 848 */
(PID.TID 0000.0001)                -8.491278899999859E+02,      /* K = 849 */
(PID.TID 0000.0001)                -8.501286299999858E+02,      /* K = 850 */
(PID.TID 0000.0001)                -8.511293699999858E+02,      /* K = 851 */
(PID.TID 0000.0001)                -8.521301099999857E+02,      /* K = 852 */
(PID.TID 0000.0001)                -8.531308499999857E+02,      /* K = 853 */
(PID.TID 0000.0001)                -8.541315899999856E+02,      /* K = 854 */
(PID.TID 0000.0001)                -8.551323299999856E+02,      /* K = 855 */
(PID.TID 0000.0001)                -8.561330699999855E+02,      /* K = 856 */
(PID.TID 0000.0001)                -8.571338099999855E+02,      /* K = 857 */
(PID.TID 0000.0001)                -8.581345499999854E+02,      /* K = 858 */
(PID.TID 0000.0001)                -8.591352899999854E+02,      /* K = 859 */
(PID.TID 0000.0001)                -8.601360299999853E+02,      /* K = 860 */
(PID.TID 0000.0001)                -8.611367699999853E+02,      /* K = 861 */
(PID.TID 0000.0001)                -8.621375099999852E+02,      /* K = 862 */
(PID.TID 0000.0001)                -8.631382499999852E+02,      /* K = 863 */
(PID.TID 0000.0001)                -8.641389899999851E+02,      /* K = 864 */
(PID.TID 0000.0001)                -8.651397299999851E+02,      /* K = 865 */
(PID.TID 0000.0001)                -8.661404699999850E+02,      /* K = 866 */
(PID.TID 0000.0001)                -8.671412099999850E+02,      /* K = 867 */
(PID.TID 0000.0001)                -8.681419499999849E+02,      /* K = 868 */
(PID.TID 0000.0001)                -8.691426899999849E+02,      /* K = 869 */
(PID.TID 0000.0001)                -8.701434299999848E+02,      /* K = 870 */
(PID.TID 0000.0001)                -8.711441699999848E+02,      /* K = 871 */
(PID.TID 0000.0001)                -8.721449099999847E+02,      /* K = 872 */
(PID.TID 0000.0001)                -8.731456499999847E+02,      /* K = 873 */
(PID.TID 0000.0001)                -8.741463899999846E+02,      /* K = 874 */
(PID.TID 0000.0001)                -8.751471299999846E+02,      /* K = 875 */
(PID.TID 0000.0001)                -8.761478699999846E+02,      /* K = 876 */
(PID.TID 0000.0001)                -8.771486099999845E+02,      /* K = 877 */
(PID.TID 0000.0001)                -8.781493499999845E+02,      /* K = 878 */
(PID.TID 0000.0001)                -8.791500899999844E+02,      /* K = 879 */
(PID.TID 0000.0001)                -8.801508299999844E+02,      /* K = 880 */
(PID.TID 0000.0001)                -8.811515699999843E+02,      /* K = 881 */
(PID.TID 0000.0001)                -8.821523099999843E+02,      /* K = 882 */
(PID.TID 0000.0001)                -8.831530499999842E+02,      /* K = 883 */
(PID.TID 0000.0001)                -8.841537899999842E+02,      /* K = 884 */
(PID.TID 0000.0001)                -8.851545299999841E+02,      /* K = 885 */
(PID.TID 0000.0001)                -8.861552699999841E+02,      /* K = 886 */
(PID.TID 0000.0001)                -8.871560099999840E+02,      /* K = 887 */
(PID.TID 0000.0001)                -8.881567499999840E+02,      /* K = 888 */
(PID.TID 0000.0001)                -8.891574899999839E+02,      /* K = 889 */
(PID.TID 0000.0001)                -8.901582299999839E+02,      /* K = 890 */
(PID.TID 0000.0001)                -8.911589699999838E+02,      /* K = 891 */
(PID.TID 0000.0001)                -8.921597099999838E+02,      /* K = 892 */
(PID.TID 0000.0001)                -8.931604499999837E+02,      /* K = 893 */
(PID.TID 0000.0001)                -8.941611899999837E+02,      /* K = 894 */
(PID.TID 0000.0001)                -8.951619299999836E+02,      /* K = 895 */
(PID.TID 0000.0001)                -8.961626699999836E+02,      /* K = 896 */
(PID.TID 0000.0001)                -8.971634099999835E+02,      /* K = 897 */
(PID.TID 0000.0001)                -8.981641499999835E+02,      /* K = 898 */
(PID.TID 0000.0001)                -8.991648899999834E+02,      /* K = 899 */
(PID.TID 0000.0001)                -9.001656299999834E+02,      /* K = 900 */
(PID.TID 0000.0001)                -9.011663699999833E+02,      /* K = 901 */
(PID.TID 0000.0001)                -9.021671099999833E+02,      /* K = 902 */
(PID.TID 0000.0001)                -9.031678499999832E+02,      /* K = 903 */
(PID.TID 0000.0001)                -9.041685899999832E+02,      /* K = 904 */
(PID.TID 0000.0001)                -9.051693299999831E+02,      /* K = 905 */
(PID.TID 0000.0001)                -9.061700699999831E+02,      /* K = 906 */
(PID.TID 0000.0001)                -9.071708099999830E+02,      /* K = 907 */
(PID.TID 0000.0001)                -9.081715499999830E+02,      /* K = 908 */
(PID.TID 0000.0001)                -9.091722899999829E+02,      /* K = 909 */
(PID.TID 0000.0001)                -9.101730299999829E+02,      /* K = 910 */
(PID.TID 0000.0001)                -9.111737699999828E+02,      /* K = 911 */
(PID.TID 0000.0001)                -9.121745099999828E+02,      /* K = 912 */
(PID.TID 0000.0001)                -9.131752499999827E+02,      /* K = 913 */
(PID.TID 0000.0001)                -9.141759899999827E+02,      /* K = 914 */
(PID.TID 0000.0001)                -9.151767299999826E+02,      /* K = 915 */
(PID.TID 0000.0001)                -9.161774699999826E+02,      /* K = 916 */
(PID.TID 0000.0001)                -9.171782099999825E+02,      /* K = 917 */
(PID.TID 0000.0001)                -9.181789499999825E+02,      /* K = 918 */
(PID.TID 0000.0001)                -9.191796899999824E+02,      /* K = 919 */
(PID.TID 0000.0001)                -9.201804299999824E+02,      /* K = 920 */
(PID.TID 0000.0001)                -9.211811699999823E+02,      /* K = 921 */
(PID.TID 0000.0001)                -9.221819099999823E+02,      /* K = 922 */
(PID.TID 0000.0001)                -9.231826499999822E+02,      /* K = 923 */
(PID.TID 0000.0001)                -9.241833899999822E+02,      /* K = 924 */
(PID.TID 0000.0001)                -9.251841299999821E+02,      /* K = 925 */
(PID.TID 0000.0001)                -9.261848699999821E+02,      /* K = 926 */
(PID.TID 0000.0001)                -9.271856099999820E+02,      /* K = 927 */
(PID.TID 0000.0001)                -9.281863499999820E+02,      /* K = 928 */
(PID.TID 0000.0001)                -9.291870899999819E+02,      /* K = 929 */
(PID.TID 0000.0001)                -9.301878299999819E+02,      /* K = 930 */
(PID.TID 0000.0001)                -9.311885699999818E+02,      /* K = 931 */
(PID.TID 0000.0001)                -9.321893099999818E+02,      /* K = 932 */
(PID.TID 0000.0001)                -9.331900499999817E+02,      /* K = 933 */
(PID.TID 0000.0001)                -9.341907899999817E+02,      /* K = 934 */
(PID.TID 0000.0001)                -9.351915299999816E+02,      /* K = 935 */
(PID.TID 0000.0001)                -9.361922699999816E+02,      /* K = 936 */
(PID.TID 0000.0001)                -9.371930099999815E+02,      /* K = 937 */
(PID.TID 0000.0001)                -9.381937499999815E+02,      /* K = 938 */
(PID.TID 0000.0001)                -9.391944899999814E+02,      /* K = 939 */
(PID.TID 0000.0001)                -9.401952299999814E+02,      /* K = 940 */
(PID.TID 0000.0001)                -9.411959699999813E+02,      /* K = 941 */
(PID.TID 0000.0001)                -9.421967099999813E+02,      /* K = 942 */
(PID.TID 0000.0001)                -9.431974499999812E+02,      /* K = 943 */
(PID.TID 0000.0001)                -9.441981899999812E+02,      /* K = 944 */
(PID.TID 0000.0001)                -9.451989299999811E+02,      /* K = 945 */
(PID.TID 0000.0001)                -9.461996699999811E+02,      /* K = 946 */
(PID.TID 0000.0001)                -9.472004099999810E+02,      /* K = 947 */
(PID.TID 0000.0001)                -9.482011499999810E+02,      /* K = 948 */
(PID.TID 0000.0001)                -9.492018899999809E+02,      /* K = 949 */
(PID.TID 0000.0001)                -9.502026299999809E+02,      /* K = 950 */
(PID.TID 0000.0001)                -9.512033699999809E+02,      /* K = 951 */
(PID.TID 0000.0001)                -9.522041099999808E+02,      /* K = 952 */
(PID.TID 0000.0001)                -9.532048499999808E+02,      /* K = 953 */
(PID.TID 0000.0001)                -9.542055899999807E+02,      /* K = 954 */
(PID.TID 0000.0001)                -9.552063299999807E+02,      /* K = 955 */
(PID.TID 0000.0001)                -9.562070699999806E+02,      /* K = 956 */
(PID.TID 0000.0001)                -9.572078099999806E+02,      /* K = 957 */
(PID.TID 0000.0001)                -9.582085499999805E+02,      /* K = 958 */
(PID.TID 0000.0001)                -9.592092899999805E+02,      /* K = 959 */
(PID.TID 0000.0001)                -9.602100299999804E+02,      /* K = 960 */
(PID.TID 0000.0001)                -9.612107699999804E+02,      /* K = 961 */
(PID.TID 0000.0001)                -9.622115099999803E+02,      /* K = 962 */
(PID.TID 0000.0001)                -9.632122499999803E+02,      /* K = 963 */
(PID.TID 0000.0001)                -9.642129899999802E+02,      /* K = 964 */
(PID.TID 0000.0001)                -9.652137299999802E+02,      /* K = 965 */
(PID.TID 0000.0001)                -9.662144699999801E+02,      /* K = 966 */
(PID.TID 0000.0001)                -9.672152099999801E+02,      /* K = 967 */
(PID.TID 0000.0001)                -9.682159499999800E+02,      /* K = 968 */
(PID.TID 0000.0001)                -9.692166899999800E+02,      /* K = 969 */
(PID.TID 0000.0001)                -9.702174299999799E+02,      /* K = 970 */
(PID.TID 0000.0001)                -9.712181699999799E+02,      /* K = 971 */
(PID.TID 0000.0001)                -9.722189099999798E+02,      /* K = 972 */
(PID.TID 0000.0001)                -9.732196499999798E+02,      /* K = 973 */
(PID.TID 0000.0001)                -9.742203899999797E+02,      /* K = 974 */
(PID.TID 0000.0001)                -9.752211299999797E+02,      /* K = 975 */
(PID.TID 0000.0001)                -9.762218699999796E+02,      /* K = 976 */
(PID.TID 0000.0001)                -9.772226099999796E+02,      /* K = 977 */
(PID.TID 0000.0001)                -9.782233499999795E+02,      /* K = 978 */
(PID.TID 0000.0001)                -9.792240899999795E+02,      /* K = 979 */
(PID.TID 0000.0001)                -9.802248299999794E+02,      /* K = 980 */
(PID.TID 0000.0001)                -9.812255699999794E+02,      /* K = 981 */
(PID.TID 0000.0001)                -9.822263099999793E+02,      /* K = 982 */
(PID.TID 0000.0001)                -9.832270499999793E+02,      /* K = 983 */
(PID.TID 0000.0001)                -9.842277899999792E+02,      /* K = 984 */
(PID.TID 0000.0001)                -9.852285299999792E+02,      /* K = 985 */
(PID.TID 0000.0001)                -9.862292699999791E+02,      /* K = 986 */
(PID.TID 0000.0001)                -9.872300099999791E+02,      /* K = 987 */
(PID.TID 0000.0001)                -9.882307499999790E+02,      /* K = 988 */
(PID.TID 0000.0001)                -9.892314899999790E+02,      /* K = 989 */
(PID.TID 0000.0001)                -9.902322299999789E+02,      /* K = 990 */
(PID.TID 0000.0001)                -9.912329699999789E+02,      /* K = 991 */
(PID.TID 0000.0001)                -9.922337099999788E+02,      /* K = 992 */
(PID.TID 0000.0001)                -9.932344499999788E+02,      /* K = 993 */
(PID.TID 0000.0001)                -9.942351899999787E+02,      /* K = 994 */
(PID.TID 0000.0001)                -9.952359299999787E+02,      /* K = 995 */
(PID.TID 0000.0001)                -9.962366699999786E+02,      /* K = 996 */
(PID.TID 0000.0001)                -9.972374099999786E+02,      /* K = 997 */
(PID.TID 0000.0001)                -9.982381499999785E+02,      /* K = 998 */
(PID.TID 0000.0001)                -9.992388899999785E+02,      /* K = 999 */
(PID.TID 0000.0001)                -1.000239629999978E+03,      /* K =1000 */
(PID.TID 0000.0001)                -1.001240369999978E+03,      /* K =1001 */
(PID.TID 0000.0001)                -1.002241109999978E+03,      /* K =1002 */
(PID.TID 0000.0001)                -1.003241849999978E+03,      /* K =1003 */
(PID.TID 0000.0001)                -1.004242589999978E+03,      /* K =1004 */
(PID.TID 0000.0001)                -1.005243329999978E+03,      /* K =1005 */
(PID.TID 0000.0001)                -1.006244069999978E+03,      /* K =1006 */
(PID.TID 0000.0001)                -1.007244809999978E+03,      /* K =1007 */
(PID.TID 0000.0001)                -1.008245549999978E+03,      /* K =1008 */
(PID.TID 0000.0001)                -1.009246289999978E+03,      /* K =1009 */
(PID.TID 0000.0001)                -1.010247029999978E+03,      /* K =1010 */
(PID.TID 0000.0001)                -1.011247769999978E+03,      /* K =1011 */
(PID.TID 0000.0001)                -1.012248509999978E+03,      /* K =1012 */
(PID.TID 0000.0001)                -1.013249249999978E+03,      /* K =1013 */
(PID.TID 0000.0001)                -1.014249989999978E+03,      /* K =1014 */
(PID.TID 0000.0001)                -1.015250729999978E+03,      /* K =1015 */
(PID.TID 0000.0001)                -1.016251469999978E+03,      /* K =1016 */
(PID.TID 0000.0001)                -1.017252209999978E+03,      /* K =1017 */
(PID.TID 0000.0001)                -1.018252949999978E+03,      /* K =1018 */
(PID.TID 0000.0001)                -1.019253689999977E+03,      /* K =1019 */
(PID.TID 0000.0001)                -1.020254429999977E+03,      /* K =1020 */
(PID.TID 0000.0001)                -1.021255169999977E+03,      /* K =1021 */
(PID.TID 0000.0001)                -1.022255909999977E+03,      /* K =1022 */
(PID.TID 0000.0001)                -1.023256649999977E+03,      /* K =1023 */
(PID.TID 0000.0001)                -1.024257389999977E+03,      /* K =1024 */
(PID.TID 0000.0001)                -1.025258129999977E+03,      /* K =1025 */
(PID.TID 0000.0001)                -1.026258869999977E+03,      /* K =1026 */
(PID.TID 0000.0001)                -1.027259609999977E+03,      /* K =1027 */
(PID.TID 0000.0001)                -1.028260349999977E+03,      /* K =1028 */
(PID.TID 0000.0001)                -1.029261089999977E+03,      /* K =1029 */
(PID.TID 0000.0001)                -1.030261829999977E+03,      /* K =1030 */
(PID.TID 0000.0001)                -1.031262569999977E+03,      /* K =1031 */
(PID.TID 0000.0001)                -1.032263309999977E+03,      /* K =1032 */
(PID.TID 0000.0001)                -1.033264049999977E+03,      /* K =1033 */
(PID.TID 0000.0001)                -1.034264789999977E+03,      /* K =1034 */
(PID.TID 0000.0001)                -1.035265529999977E+03,      /* K =1035 */
(PID.TID 0000.0001)                -1.036266269999977E+03,      /* K =1036 */
(PID.TID 0000.0001)                -1.037267009999977E+03,      /* K =1037 */
(PID.TID 0000.0001)                -1.038267749999977E+03,      /* K =1038 */
(PID.TID 0000.0001)                -1.039268489999977E+03,      /* K =1039 */
(PID.TID 0000.0001)                -1.040269229999976E+03,      /* K =1040 */
(PID.TID 0000.0001)                -1.041269969999976E+03,      /* K =1041 */
(PID.TID 0000.0001)                -1.042270709999976E+03,      /* K =1042 */
(PID.TID 0000.0001)                -1.043271449999976E+03,      /* K =1043 */
(PID.TID 0000.0001)                -1.044272189999976E+03,      /* K =1044 */
(PID.TID 0000.0001)                -1.045272929999976E+03,      /* K =1045 */
(PID.TID 0000.0001)                -1.046273669999976E+03,      /* K =1046 */
(PID.TID 0000.0001)                -1.047274409999976E+03,      /* K =1047 */
(PID.TID 0000.0001)                -1.048275149999976E+03,      /* K =1048 */
(PID.TID 0000.0001)                -1.049275889999976E+03,      /* K =1049 */
(PID.TID 0000.0001)                -1.050276629999976E+03,      /* K =1050 */
(PID.TID 0000.0001)                -1.051277369999976E+03,      /* K =1051 */
(PID.TID 0000.0001)                -1.052278109999976E+03,      /* K =1052 */
(PID.TID 0000.0001)                -1.053278849999976E+03,      /* K =1053 */
(PID.TID 0000.0001)                -1.054279589999976E+03,      /* K =1054 */
(PID.TID 0000.0001)                -1.055280329999976E+03,      /* K =1055 */
(PID.TID 0000.0001)                -1.056281069999976E+03,      /* K =1056 */
(PID.TID 0000.0001)                -1.057281809999976E+03,      /* K =1057 */
(PID.TID 0000.0001)                -1.058282549999976E+03,      /* K =1058 */
(PID.TID 0000.0001)                -1.059283289999976E+03,      /* K =1059 */
(PID.TID 0000.0001)                -1.060284029999975E+03,      /* K =1060 */
(PID.TID 0000.0001)                -1.061284769999975E+03,      /* K =1061 */
(PID.TID 0000.0001)                -1.062285509999975E+03,      /* K =1062 */
(PID.TID 0000.0001)                -1.063286249999975E+03,      /* K =1063 */
(PID.TID 0000.0001)                -1.064286989999975E+03,      /* K =1064 */
(PID.TID 0000.0001)                -1.065287729999975E+03,      /* K =1065 */
(PID.TID 0000.0001)                -1.066288469999975E+03,      /* K =1066 */
(PID.TID 0000.0001)                -1.067289209999975E+03,      /* K =1067 */
(PID.TID 0000.0001)                -1.068289949999975E+03,      /* K =1068 */
(PID.TID 0000.0001)                -1.069290689999975E+03,      /* K =1069 */
(PID.TID 0000.0001)                -1.070291429999975E+03,      /* K =1070 */
(PID.TID 0000.0001)                -1.071292169999975E+03,      /* K =1071 */
(PID.TID 0000.0001)                -1.072292909999975E+03,      /* K =1072 */
(PID.TID 0000.0001)                -1.073293649999975E+03,      /* K =1073 */
(PID.TID 0000.0001)                -1.074294389999975E+03,      /* K =1074 */
(PID.TID 0000.0001)                -1.075295129999975E+03,      /* K =1075 */
(PID.TID 0000.0001)                -1.076295869999975E+03,      /* K =1076 */
(PID.TID 0000.0001)                -1.077296609999975E+03,      /* K =1077 */
(PID.TID 0000.0001)                -1.078297349999975E+03,      /* K =1078 */
(PID.TID 0000.0001)                -1.079298089999975E+03,      /* K =1079 */
(PID.TID 0000.0001)                -1.080298829999974E+03,      /* K =1080 */
(PID.TID 0000.0001)                -1.081299569999974E+03,      /* K =1081 */
(PID.TID 0000.0001)                -1.082300309999974E+03,      /* K =1082 */
(PID.TID 0000.0001)                -1.083301049999974E+03,      /* K =1083 */
(PID.TID 0000.0001)                -1.084301789999974E+03,      /* K =1084 */
(PID.TID 0000.0001)                -1.085302529999974E+03,      /* K =1085 */
(PID.TID 0000.0001)                -1.086303269999974E+03,      /* K =1086 */
(PID.TID 0000.0001)                -1.087304009999974E+03,      /* K =1087 */
(PID.TID 0000.0001)                -1.088304749999974E+03,      /* K =1088 */
(PID.TID 0000.0001)                -1.089305489999974E+03,      /* K =1089 */
(PID.TID 0000.0001)                -1.090306229999974E+03,      /* K =1090 */
(PID.TID 0000.0001)                -1.091306969999974E+03,      /* K =1091 */
(PID.TID 0000.0001)                -1.092307709999974E+03,      /* K =1092 */
(PID.TID 0000.0001)                -1.093308449999974E+03,      /* K =1093 */
(PID.TID 0000.0001)                -1.094309189999974E+03,      /* K =1094 */
(PID.TID 0000.0001)                -1.095309929999974E+03,      /* K =1095 */
(PID.TID 0000.0001)                -1.096310669999974E+03,      /* K =1096 */
(PID.TID 0000.0001)                -1.097311409999974E+03,      /* K =1097 */
(PID.TID 0000.0001)                -1.098312149999974E+03,      /* K =1098 */
(PID.TID 0000.0001)                -1.099312889999974E+03,      /* K =1099 */
(PID.TID 0000.0001)                -1.100313629999974E+03,      /* K =1100 */
(PID.TID 0000.0001)                -1.101314369999973E+03,      /* K =1101 */
(PID.TID 0000.0001)                -1.102315109999973E+03,      /* K =1102 */
(PID.TID 0000.0001)                -1.103315849999973E+03,      /* K =1103 */
(PID.TID 0000.0001)                -1.104316589999973E+03,      /* K =1104 */
(PID.TID 0000.0001)                -1.105317329999973E+03,      /* K =1105 */
(PID.TID 0000.0001)                -1.106318069999973E+03,      /* K =1106 */
(PID.TID 0000.0001)                -1.107318809999973E+03,      /* K =1107 */
(PID.TID 0000.0001)                -1.108319549999973E+03,      /* K =1108 */
(PID.TID 0000.0001)                -1.109320289999973E+03,      /* K =1109 */
(PID.TID 0000.0001)                -1.110321029999973E+03,      /* K =1110 */
(PID.TID 0000.0001)                -1.111321769999973E+03,      /* K =1111 */
(PID.TID 0000.0001)                -1.112322509999973E+03,      /* K =1112 */
(PID.TID 0000.0001)                -1.113323249999973E+03,      /* K =1113 */
(PID.TID 0000.0001)                -1.114323989999973E+03,      /* K =1114 */
(PID.TID 0000.0001)                -1.115324729999973E+03,      /* K =1115 */
(PID.TID 0000.0001)                -1.116325469999973E+03,      /* K =1116 */
(PID.TID 0000.0001)                -1.117326209999973E+03       /* K =1117 */
(PID.TID 0000.0001)     ;
(PID.TID 0000.0001) rF =   /* W-Interf. R coordinate (  units of r ) */
(PID.TID 0000.0001)                 0.000000000000000E+00,      /* K =   1 */
(PID.TID 0000.0001)                -1.000740000000000E+00,      /* K =   2 */
(PID.TID 0000.0001)                -2.001480000000000E+00,      /* K =   3 */
(PID.TID 0000.0001)                -3.002220000000000E+00,      /* K =   4 */
(PID.TID 0000.0001)                -4.002960000000000E+00,      /* K =   5 */
(PID.TID 0000.0001)                -5.003700000000000E+00,      /* K =   6 */
(PID.TID 0000.0001)                -6.004440000000001E+00,      /* K =   7 */
(PID.TID 0000.0001)                -7.005180000000001E+00,      /* K =   8 */
(PID.TID 0000.0001)                -8.005920000000001E+00,      /* K =   9 */
(PID.TID 0000.0001)                -9.006660000000002E+00,      /* K =  10 */
(PID.TID 0000.0001)                -1.000740000000000E+01,      /* K =  11 */
(PID.TID 0000.0001)                -1.100814000000000E+01,      /* K =  12 */
(PID.TID 0000.0001)                -1.200888000000000E+01,      /* K =  13 */
(PID.TID 0000.0001)                -1.300962000000000E+01,      /* K =  14 */
(PID.TID 0000.0001)                -1.401036000000000E+01,      /* K =  15 */
(PID.TID 0000.0001)                -1.501110000000000E+01,      /* K =  16 */
(PID.TID 0000.0001)                -1.601184000000000E+01,      /* K =  17 */
(PID.TID 0000.0001)                -1.701258000000000E+01,      /* K =  18 */
(PID.TID 0000.0001)                -1.801332000000000E+01,      /* K =  19 */
(PID.TID 0000.0001)                -1.901406000000000E+01,      /* K =  20 */
(PID.TID 0000.0001)                -2.001480000000000E+01,      /* K =  21 */
(PID.TID 0000.0001)                -2.101554000000000E+01,      /* K =  22 */
(PID.TID 0000.0001)                -2.201628000000001E+01,      /* K =  23 */
(PID.TID 0000.0001)                -2.301702000000001E+01,      /* K =  24 */
(PID.TID 0000.0001)                -2.401776000000001E+01,      /* K =  25 */
(PID.TID 0000.0001)                -2.501850000000001E+01,      /* K =  26 */
(PID.TID 0000.0001)                -2.601924000000001E+01,      /* K =  27 */
(PID.TID 0000.0001)                -2.701998000000001E+01,      /* K =  28 */
(PID.TID 0000.0001)                -2.802072000000001E+01,      /* K =  29 */
(PID.TID 0000.0001)                -2.902146000000001E+01,      /* K =  30 */
(PID.TID 0000.0001)                -3.002220000000001E+01,      /* K =  31 */
(PID.TID 0000.0001)                -3.102294000000001E+01,      /* K =  32 */
(PID.TID 0000.0001)                -3.202368000000001E+01,      /* K =  33 */
(PID.TID 0000.0001)                -3.302442000000001E+01,      /* K =  34 */
(PID.TID 0000.0001)                -3.402516000000001E+01,      /* K =  35 */
(PID.TID 0000.0001)                -3.502590000000001E+01,      /* K =  36 */
(PID.TID 0000.0001)                -3.602664000000001E+01,      /* K =  37 */
(PID.TID 0000.0001)                -3.702738000000001E+01,      /* K =  38 */
(PID.TID 0000.0001)                -3.802812000000001E+01,      /* K =  39 */
(PID.TID 0000.0001)                -3.902886000000001E+01,      /* K =  40 */
(PID.TID 0000.0001)                -4.002960000000001E+01,      /* K =  41 */
(PID.TID 0000.0001)                -4.103034000000001E+01,      /* K =  42 */
(PID.TID 0000.0001)                -4.203108000000001E+01,      /* K =  43 */
(PID.TID 0000.0001)                -4.303182000000001E+01,      /* K =  44 */
(PID.TID 0000.0001)                -4.403256000000001E+01,      /* K =  45 */
(PID.TID 0000.0001)                -4.503330000000001E+01,      /* K =  46 */
(PID.TID 0000.0001)                -4.603404000000001E+01,      /* K =  47 */
(PID.TID 0000.0001)                -4.703478000000001E+01,      /* K =  48 */
(PID.TID 0000.0001)                -4.803552000000001E+01,      /* K =  49 */
(PID.TID 0000.0001)                -4.903626000000001E+01,      /* K =  50 */
(PID.TID 0000.0001)                -5.003700000000001E+01,      /* K =  51 */
(PID.TID 0000.0001)                -5.103774000000001E+01,      /* K =  52 */
(PID.TID 0000.0001)                -5.203848000000001E+01,      /* K =  53 */
(PID.TID 0000.0001)                -5.303922000000001E+01,      /* K =  54 */
(PID.TID 0000.0001)                -5.403996000000001E+01,      /* K =  55 */
(PID.TID 0000.0001)                -5.504070000000002E+01,      /* K =  56 */
(PID.TID 0000.0001)                -5.604144000000002E+01,      /* K =  57 */
(PID.TID 0000.0001)                -5.704218000000002E+01,      /* K =  58 */
(PID.TID 0000.0001)                -5.804292000000002E+01,      /* K =  59 */
(PID.TID 0000.0001)                -5.904366000000002E+01,      /* K =  60 */
(PID.TID 0000.0001)                -6.004440000000002E+01,      /* K =  61 */
(PID.TID 0000.0001)                -6.104514000000002E+01,      /* K =  62 */
(PID.TID 0000.0001)                -6.204588000000002E+01,      /* K =  63 */
(PID.TID 0000.0001)                -6.304662000000002E+01,      /* K =  64 */
(PID.TID 0000.0001)                -6.404736000000001E+01,      /* K =  65 */
(PID.TID 0000.0001)                -6.504810000000001E+01,      /* K =  66 */
(PID.TID 0000.0001)                -6.604884000000000E+01,      /* K =  67 */
(PID.TID 0000.0001)                -6.704957999999999E+01,      /* K =  68 */
(PID.TID 0000.0001)                -6.805031999999999E+01,      /* K =  69 */
(PID.TID 0000.0001)                -6.905105999999998E+01,      /* K =  70 */
(PID.TID 0000.0001)                -7.005179999999997E+01,      /* K =  71 */
(PID.TID 0000.0001)                -7.105253999999996E+01,      /* K =  72 */
(PID.TID 0000.0001)                -7.205327999999996E+01,      /* K =  73 */
(PID.TID 0000.0001)                -7.305401999999995E+01,      /* K =  74 */
(PID.TID 0000.0001)                -7.405475999999994E+01,      /* K =  75 */
(PID.TID 0000.0001)                -7.505549999999994E+01,      /* K =  76 */
(PID.TID 0000.0001)                -7.605623999999993E+01,      /* K =  77 */
(PID.TID 0000.0001)                -7.705697999999992E+01,      /* K =  78 */
(PID.TID 0000.0001)                -7.805771999999992E+01,      /* K =  79 */
(PID.TID 0000.0001)                -7.905845999999991E+01,      /* K =  80 */
(PID.TID 0000.0001)                -8.005919999999990E+01,      /* K =  81 */
(PID.TID 0000.0001)                -8.105993999999990E+01,      /* K =  82 */
(PID.TID 0000.0001)                -8.206067999999989E+01,      /* K =  83 */
(PID.TID 0000.0001)                -8.306141999999988E+01,      /* K =  84 */
(PID.TID 0000.0001)                -8.406215999999988E+01,      /* K =  85 */
(PID.TID 0000.0001)                -8.506289999999987E+01,      /* K =  86 */
(PID.TID 0000.0001)                -8.606363999999986E+01,      /* K =  87 */
(PID.TID 0000.0001)                -8.706437999999986E+01,      /* K =  88 */
(PID.TID 0000.0001)                -8.806511999999985E+01,      /* K =  89 */
(PID.TID 0000.0001)                -8.906585999999984E+01,      /* K =  90 */
(PID.TID 0000.0001)                -9.006659999999984E+01,      /* K =  91 */
(PID.TID 0000.0001)                -9.106733999999983E+01,      /* K =  92 */
(PID.TID 0000.0001)                -9.206807999999982E+01,      /* K =  93 */
(PID.TID 0000.0001)                -9.306881999999982E+01,      /* K =  94 */
(PID.TID 0000.0001)                -9.406955999999981E+01,      /* K =  95 */
(PID.TID 0000.0001)                -9.507029999999980E+01,      /* K =  96 */
(PID.TID 0000.0001)                -9.607103999999980E+01,      /* K =  97 */
(PID.TID 0000.0001)                -9.707177999999979E+01,      /* K =  98 */
(PID.TID 0000.0001)                -9.807251999999978E+01,      /* K =  99 */
(PID.TID 0000.0001)                -9.907325999999978E+01,      /* K = 100 */
(PID.TID 0000.0001)                -1.000739999999998E+02,      /* K = 101 */
(PID.TID 0000.0001)                -1.010747399999998E+02,      /* K = 102 */
(PID.TID 0000.0001)                -1.020754799999998E+02,      /* K = 103 */
(PID.TID 0000.0001)                -1.030762199999998E+02,      /* K = 104 */
(PID.TID 0000.0001)                -1.040769599999997E+02,      /* K = 105 */
(PID.TID 0000.0001)                -1.050776999999997E+02,      /* K = 106 */
(PID.TID 0000.0001)                -1.060784399999997E+02,      /* K = 107 */
(PID.TID 0000.0001)                -1.070791799999997E+02,      /* K = 108 */
(PID.TID 0000.0001)                -1.080799199999997E+02,      /* K = 109 */
(PID.TID 0000.0001)                -1.090806599999997E+02,      /* K = 110 */
(PID.TID 0000.0001)                -1.100813999999997E+02,      /* K = 111 */
(PID.TID 0000.0001)                -1.110821399999997E+02,      /* K = 112 */
(PID.TID 0000.0001)                -1.120828799999997E+02,      /* K = 113 */
(PID.TID 0000.0001)                -1.130836199999997E+02,      /* K = 114 */
(PID.TID 0000.0001)                -1.140843599999997E+02,      /* K = 115 */
(PID.TID 0000.0001)                -1.150850999999997E+02,      /* K = 116 */
(PID.TID 0000.0001)                -1.160858399999997E+02,      /* K = 117 */
(PID.TID 0000.0001)                -1.170865799999997E+02,      /* K = 118 */
(PID.TID 0000.0001)                -1.180873199999997E+02,      /* K = 119 */
(PID.TID 0000.0001)                -1.190880599999996E+02,      /* K = 120 */
(PID.TID 0000.0001)                -1.200887999999996E+02,      /* K = 121 */
(PID.TID 0000.0001)                -1.210895399999996E+02,      /* K = 122 */
(PID.TID 0000.0001)                -1.220902799999996E+02,      /* K = 123 */
(PID.TID 0000.0001)                -1.230910199999996E+02,      /* K = 124 */
(PID.TID 0000.0001)                -1.240917599999996E+02,      /* K = 125 */
(PID.TID 0000.0001)                -1.250924999999996E+02,      /* K = 126 */
(PID.TID 0000.0001)                -1.260932399999996E+02,      /* K = 127 */
(PID.TID 0000.0001)                -1.270939799999996E+02,      /* K = 128 */
(PID.TID 0000.0001)                -1.280947199999996E+02,      /* K = 129 */
(PID.TID 0000.0001)                -1.290954599999996E+02,      /* K = 130 */
(PID.TID 0000.0001)                -1.300961999999996E+02,      /* K = 131 */
(PID.TID 0000.0001)                -1.310969399999996E+02,      /* K = 132 */
(PID.TID 0000.0001)                -1.320976799999996E+02,      /* K = 133 */
(PID.TID 0000.0001)                -1.330984199999996E+02,      /* K = 134 */
(PID.TID 0000.0001)                -1.340991599999996E+02,      /* K = 135 */
(PID.TID 0000.0001)                -1.350998999999996E+02,      /* K = 136 */
(PID.TID 0000.0001)                -1.361006399999997E+02,      /* K = 137 */
(PID.TID 0000.0001)                -1.371013799999997E+02,      /* K = 138 */
(PID.TID 0000.0001)                -1.381021199999997E+02,      /* K = 139 */
(PID.TID 0000.0001)                -1.391028599999997E+02,      /* K = 140 */
(PID.TID 0000.0001)                -1.401035999999997E+02,      /* K = 141 */
(PID.TID 0000.0001)                -1.411043399999997E+02,      /* K = 142 */
(PID.TID 0000.0001)                -1.421050799999997E+02,      /* K = 143 */
(PID.TID 0000.0001)                -1.431058199999997E+02,      /* K = 144 */
(PID.TID 0000.0001)                -1.441065599999997E+02,      /* K = 145 */
(PID.TID 0000.0001)                -1.451072999999997E+02,      /* K = 146 */
(PID.TID 0000.0001)                -1.461080399999997E+02,      /* K = 147 */
(PID.TID 0000.0001)                -1.471087799999997E+02,      /* K = 148 */
(PID.TID 0000.0001)                -1.481095199999997E+02,      /* K = 149 */
(PID.TID 0000.0001)                -1.491102599999998E+02,      /* K = 150 */
(PID.TID 0000.0001)                -1.501109999999998E+02,      /* K = 151 */
(PID.TID 0000.0001)                -1.511117399999998E+02,      /* K = 152 */
(PID.TID 0000.0001)                -1.521124799999998E+02,      /* K = 153 */
(PID.TID 0000.0001)                -1.531132199999998E+02,      /* K = 154 */
(PID.TID 0000.0001)                -1.541139599999998E+02,      /* K = 155 */
(PID.TID 0000.0001)                -1.551146999999998E+02,      /* K = 156 */
(PID.TID 0000.0001)                -1.561154399999998E+02,      /* K = 157 */
(PID.TID 0000.0001)                -1.571161799999998E+02,      /* K = 158 */
(PID.TID 0000.0001)                -1.581169199999998E+02,      /* K = 159 */
(PID.TID 0000.0001)                -1.591176599999998E+02,      /* K = 160 */
(PID.TID 0000.0001)                -1.601183999999998E+02,      /* K = 161 */
(PID.TID 0000.0001)                -1.611191399999998E+02,      /* K = 162 */
(PID.TID 0000.0001)                -1.621198799999999E+02,      /* K = 163 */
(PID.TID 0000.0001)                -1.631206199999999E+02,      /* K = 164 */
(PID.TID 0000.0001)                -1.641213599999999E+02,      /* K = 165 */
(PID.TID 0000.0001)                -1.651220999999999E+02,      /* K = 166 */
(PID.TID 0000.0001)                -1.661228399999999E+02,      /* K = 167 */
(PID.TID 0000.0001)                -1.671235799999999E+02,      /* K = 168 */
(PID.TID 0000.0001)                -1.681243199999999E+02,      /* K = 169 */
(PID.TID 0000.0001)                -1.691250599999999E+02,      /* K = 170 */
(PID.TID 0000.0001)                -1.701257999999999E+02,      /* K = 171 */
(PID.TID 0000.0001)                -1.711265399999999E+02,      /* K = 172 */
(PID.TID 0000.0001)                -1.721272799999999E+02,      /* K = 173 */
(PID.TID 0000.0001)                -1.731280199999999E+02,      /* K = 174 */
(PID.TID 0000.0001)                -1.741287599999999E+02,      /* K = 175 */
(PID.TID 0000.0001)                -1.751295000000000E+02,      /* K = 176 */
(PID.TID 0000.0001)                -1.761302400000000E+02,      /* K = 177 */
(PID.TID 0000.0001)                -1.771309800000000E+02,      /* K = 178 */
(PID.TID 0000.0001)                -1.781317200000000E+02,      /* K = 179 */
(PID.TID 0000.0001)                -1.791324600000000E+02,      /* K = 180 */
(PID.TID 0000.0001)                -1.801332000000000E+02,      /* K = 181 */
(PID.TID 0000.0001)                -1.811339400000000E+02,      /* K = 182 */
(PID.TID 0000.0001)                -1.821346800000000E+02,      /* K = 183 */
(PID.TID 0000.0001)                -1.831354200000000E+02,      /* K = 184 */
(PID.TID 0000.0001)                -1.841361600000000E+02,      /* K = 185 */
(PID.TID 0000.0001)                -1.851369000000000E+02,      /* K = 186 */
(PID.TID 0000.0001)                -1.861376400000000E+02,      /* K = 187 */
(PID.TID 0000.0001)                -1.871383800000000E+02,      /* K = 188 */
(PID.TID 0000.0001)                -1.881391200000000E+02,      /* K = 189 */
(PID.TID 0000.0001)                -1.891398600000001E+02,      /* K = 190 */
(PID.TID 0000.0001)                -1.901406000000001E+02,      /* K = 191 */
(PID.TID 0000.0001)                -1.911413400000001E+02,      /* K = 192 */
(PID.TID 0000.0001)                -1.921420800000001E+02,      /* K = 193 */
(PID.TID 0000.0001)                -1.931428200000001E+02,      /* K = 194 */
(PID.TID 0000.0001)                -1.941435600000001E+02,      /* K = 195 */
(PID.TID 0000.0001)                -1.951443000000001E+02,      /* K = 196 */
(PID.TID 0000.0001)                -1.961450400000001E+02,      /* K = 197 */
(PID.TID 0000.0001)                -1.971457800000001E+02,      /* K = 198 */
(PID.TID 0000.0001)                -1.981465200000001E+02,      /* K = 199 */
(PID.TID 0000.0001)                -1.991472600000001E+02,      /* K = 200 */
(PID.TID 0000.0001)                -2.001480000000001E+02,      /* K = 201 */
(PID.TID 0000.0001)                -2.011487400000001E+02,      /* K = 202 */
(PID.TID 0000.0001)                -2.021494800000002E+02,      /* K = 203 */
(PID.TID 0000.0001)                -2.031502200000002E+02,      /* K = 204 */
(PID.TID 0000.0001)                -2.041509600000002E+02,      /* K = 205 */
(PID.TID 0000.0001)                -2.051517000000002E+02,      /* K = 206 */
(PID.TID 0000.0001)                -2.061524400000002E+02,      /* K = 207 */
(PID.TID 0000.0001)                -2.071531800000002E+02,      /* K = 208 */
(PID.TID 0000.0001)                -2.081539200000002E+02,      /* K = 209 */
(PID.TID 0000.0001)                -2.091546600000002E+02,      /* K = 210 */
(PID.TID 0000.0001)                -2.101554000000002E+02,      /* K = 211 */
(PID.TID 0000.0001)                -2.111561400000002E+02,      /* K = 212 */
(PID.TID 0000.0001)                -2.121568800000002E+02,      /* K = 213 */
(PID.TID 0000.0001)                -2.131576200000002E+02,      /* K = 214 */
(PID.TID 0000.0001)                -2.141583600000002E+02,      /* K = 215 */
(PID.TID 0000.0001)                -2.151591000000003E+02,      /* K = 216 */
(PID.TID 0000.0001)                -2.161598400000003E+02,      /* K = 217 */
(PID.TID 0000.0001)                -2.171605800000003E+02,      /* K = 218 */
(PID.TID 0000.0001)                -2.181613200000003E+02,      /* K = 219 */
(PID.TID 0000.0001)                -2.191620600000003E+02,      /* K = 220 */
(PID.TID 0000.0001)                -2.201628000000003E+02,      /* K = 221 */
(PID.TID 0000.0001)                -2.211635400000003E+02,      /* K = 222 */
(PID.TID 0000.0001)                -2.221642800000003E+02,      /* K = 223 */
(PID.TID 0000.0001)                -2.231650200000003E+02,      /* K = 224 */
(PID.TID 0000.0001)                -2.241657600000003E+02,      /* K = 225 */
(PID.TID 0000.0001)                -2.251665000000003E+02,      /* K = 226 */
(PID.TID 0000.0001)                -2.261672400000003E+02,      /* K = 227 */
(PID.TID 0000.0001)                -2.271679800000003E+02,      /* K = 228 */
(PID.TID 0000.0001)                -2.281687200000003E+02,      /* K = 229 */
(PID.TID 0000.0001)                -2.291694600000004E+02,      /* K = 230 */
(PID.TID 0000.0001)                -2.301702000000004E+02,      /* K = 231 */
(PID.TID 0000.0001)                -2.311709400000004E+02,      /* K = 232 */
(PID.TID 0000.0001)                -2.321716800000004E+02,      /* K = 233 */
(PID.TID 0000.0001)                -2.331724200000004E+02,      /* K = 234 */
(PID.TID 0000.0001)                -2.341731600000004E+02,      /* K = 235 */
(PID.TID 0000.0001)                -2.351739000000004E+02,      /* K = 236 */
(PID.TID 0000.0001)                -2.361746400000004E+02,      /* K = 237 */
(PID.TID 0000.0001)                -2.371753800000004E+02,      /* K = 238 */
(PID.TID 0000.0001)                -2.381761200000004E+02,      /* K = 239 */
(PID.TID 0000.0001)                -2.391768600000004E+02,      /* K = 240 */
(PID.TID 0000.0001)                -2.401776000000004E+02,      /* K = 241 */
(PID.TID 0000.0001)                -2.411783400000004E+02,      /* K = 242 */
(PID.TID 0000.0001)                -2.421790800000005E+02,      /* K = 243 */
(PID.TID 0000.0001)                -2.431798200000005E+02,      /* K = 244 */
(PID.TID 0000.0001)                -2.441805600000005E+02,      /* K = 245 */
(PID.TID 0000.0001)                -2.451813000000005E+02,      /* K = 246 */
(PID.TID 0000.0001)                -2.461820400000005E+02,      /* K = 247 */
(PID.TID 0000.0001)                -2.471827800000005E+02,      /* K = 248 */
(PID.TID 0000.0001)                -2.481835200000005E+02,      /* K = 249 */
(PID.TID 0000.0001)                -2.491842600000005E+02,      /* K = 250 */
(PID.TID 0000.0001)                -2.501850000000005E+02,      /* K = 251 */
(PID.TID 0000.0001)                -2.511857400000005E+02,      /* K = 252 */
(PID.TID 0000.0001)                -2.521864800000005E+02,      /* K = 253 */
(PID.TID 0000.0001)                -2.531872200000005E+02,      /* K = 254 */
(PID.TID 0000.0001)                -2.541879600000005E+02,      /* K = 255 */
(PID.TID 0000.0001)                -2.551887000000006E+02,      /* K = 256 */
(PID.TID 0000.0001)                -2.561894400000006E+02,      /* K = 257 */
(PID.TID 0000.0001)                -2.571901800000006E+02,      /* K = 258 */
(PID.TID 0000.0001)                -2.581909200000006E+02,      /* K = 259 */
(PID.TID 0000.0001)                -2.591916600000006E+02,      /* K = 260 */
(PID.TID 0000.0001)                -2.601924000000006E+02,      /* K = 261 */
(PID.TID 0000.0001)                -2.611931400000006E+02,      /* K = 262 */
(PID.TID 0000.0001)                -2.621938800000006E+02,      /* K = 263 */
(PID.TID 0000.0001)                -2.631946200000006E+02,      /* K = 264 */
(PID.TID 0000.0001)                -2.641953600000006E+02,      /* K = 265 */
(PID.TID 0000.0001)                -2.651961000000006E+02,      /* K = 266 */
(PID.TID 0000.0001)                -2.661968400000006E+02,      /* K = 267 */
(PID.TID 0000.0001)                -2.671975800000006E+02,      /* K = 268 */
(PID.TID 0000.0001)                -2.681983200000006E+02,      /* K = 269 */
(PID.TID 0000.0001)                -2.691990600000007E+02,      /* K = 270 */
(PID.TID 0000.0001)                -2.701998000000007E+02,      /* K = 271 */
(PID.TID 0000.0001)                -2.712005400000007E+02,      /* K = 272 */
(PID.TID 0000.0001)                -2.722012800000007E+02,      /* K = 273 */
(PID.TID 0000.0001)                -2.732020200000007E+02,      /* K = 274 */
(PID.TID 0000.0001)                -2.742027600000007E+02,      /* K = 275 */
(PID.TID 0000.0001)                -2.752035000000007E+02,      /* K = 276 */
(PID.TID 0000.0001)                -2.762042400000007E+02,      /* K = 277 */
(PID.TID 0000.0001)                -2.772049800000007E+02,      /* K = 278 */
(PID.TID 0000.0001)                -2.782057200000007E+02,      /* K = 279 */
(PID.TID 0000.0001)                -2.792064600000007E+02,      /* K = 280 */
(PID.TID 0000.0001)                -2.802072000000007E+02,      /* K = 281 */
(PID.TID 0000.0001)                -2.812079400000007E+02,      /* K = 282 */
(PID.TID 0000.0001)                -2.822086800000008E+02,      /* K = 283 */
(PID.TID 0000.0001)                -2.832094200000008E+02,      /* K = 284 */
(PID.TID 0000.0001)                -2.842101600000008E+02,      /* K = 285 */
(PID.TID 0000.0001)                -2.852109000000008E+02,      /* K = 286 */
(PID.TID 0000.0001)                -2.862116400000008E+02,      /* K = 287 */
(PID.TID 0000.0001)                -2.872123800000008E+02,      /* K = 288 */
(PID.TID 0000.0001)                -2.882131200000008E+02,      /* K = 289 */
(PID.TID 0000.0001)                -2.892138600000008E+02,      /* K = 290 */
(PID.TID 0000.0001)                -2.902146000000008E+02,      /* K = 291 */
(PID.TID 0000.0001)                -2.912153400000008E+02,      /* K = 292 */
(PID.TID 0000.0001)                -2.922160800000008E+02,      /* K = 293 */
(PID.TID 0000.0001)                -2.932168200000008E+02,      /* K = 294 */
(PID.TID 0000.0001)                -2.942175600000008E+02,      /* K = 295 */
(PID.TID 0000.0001)                -2.952183000000009E+02,      /* K = 296 */
(PID.TID 0000.0001)                -2.962190400000009E+02,      /* K = 297 */
(PID.TID 0000.0001)                -2.972197800000009E+02,      /* K = 298 */
(PID.TID 0000.0001)                -2.982205200000009E+02,      /* K = 299 */
(PID.TID 0000.0001)                -2.992212600000009E+02,      /* K = 300 */
(PID.TID 0000.0001)                -3.002220000000009E+02,      /* K = 301 */
(PID.TID 0000.0001)                -3.012227400000009E+02,      /* K = 302 */
(PID.TID 0000.0001)                -3.022234800000009E+02,      /* K = 303 */
(PID.TID 0000.0001)                -3.032242200000009E+02,      /* K = 304 */
(PID.TID 0000.0001)                -3.042249600000009E+02,      /* K = 305 */
(PID.TID 0000.0001)                -3.052257000000009E+02,      /* K = 306 */
(PID.TID 0000.0001)                -3.062264400000009E+02,      /* K = 307 */
(PID.TID 0000.0001)                -3.072271800000009E+02,      /* K = 308 */
(PID.TID 0000.0001)                -3.082279200000009E+02,      /* K = 309 */
(PID.TID 0000.0001)                -3.092286600000010E+02,      /* K = 310 */
(PID.TID 0000.0001)                -3.102294000000010E+02,      /* K = 311 */
(PID.TID 0000.0001)                -3.112301400000010E+02,      /* K = 312 */
(PID.TID 0000.0001)                -3.122308800000010E+02,      /* K = 313 */
(PID.TID 0000.0001)                -3.132316200000010E+02,      /* K = 314 */
(PID.TID 0000.0001)                -3.142323600000010E+02,      /* K = 315 */
(PID.TID 0000.0001)                -3.152331000000010E+02,      /* K = 316 */
(PID.TID 0000.0001)                -3.162338400000010E+02,      /* K = 317 */
(PID.TID 0000.0001)                -3.172345800000010E+02,      /* K = 318 */
(PID.TID 0000.0001)                -3.182353200000010E+02,      /* K = 319 */
(PID.TID 0000.0001)                -3.192360600000010E+02,      /* K = 320 */
(PID.TID 0000.0001)                -3.202368000000010E+02,      /* K = 321 */
(PID.TID 0000.0001)                -3.212375400000010E+02,      /* K = 322 */
(PID.TID 0000.0001)                -3.222382800000011E+02,      /* K = 323 */
(PID.TID 0000.0001)                -3.232390200000011E+02,      /* K = 324 */
(PID.TID 0000.0001)                -3.242397600000011E+02,      /* K = 325 */
(PID.TID 0000.0001)                -3.252405000000011E+02,      /* K = 326 */
(PID.TID 0000.0001)                -3.262412400000011E+02,      /* K = 327 */
(PID.TID 0000.0001)                -3.272419800000011E+02,      /* K = 328 */
(PID.TID 0000.0001)                -3.282427200000011E+02,      /* K = 329 */
(PID.TID 0000.0001)                -3.292434600000011E+02,      /* K = 330 */
(PID.TID 0000.0001)                -3.302442000000011E+02,      /* K = 331 */
(PID.TID 0000.0001)                -3.312449400000011E+02,      /* K = 332 */
(PID.TID 0000.0001)                -3.322456800000011E+02,      /* K = 333 */
(PID.TID 0000.0001)                -3.332464200000011E+02,      /* K = 334 */
(PID.TID 0000.0001)                -3.342471600000011E+02,      /* K = 335 */
(PID.TID 0000.0001)                -3.352479000000012E+02,      /* K = 336 */
(PID.TID 0000.0001)                -3.362486400000012E+02,      /* K = 337 */
(PID.TID 0000.0001)                -3.372493800000012E+02,      /* K = 338 */
(PID.TID 0000.0001)                -3.382501200000012E+02,      /* K = 339 */
(PID.TID 0000.0001)                -3.392508600000012E+02,      /* K = 340 */
(PID.TID 0000.0001)                -3.402516000000012E+02,      /* K = 341 */
(PID.TID 0000.0001)                -3.412523400000012E+02,      /* K = 342 */
(PID.TID 0000.0001)                -3.422530800000012E+02,      /* K = 343 */
(PID.TID 0000.0001)                -3.432538200000012E+02,      /* K = 344 */
(PID.TID 0000.0001)                -3.442545600000012E+02,      /* K = 345 */
(PID.TID 0000.0001)                -3.452553000000012E+02,      /* K = 346 */
(PID.TID 0000.0001)                -3.462560400000012E+02,      /* K = 347 */
(PID.TID 0000.0001)                -3.472567800000012E+02,      /* K = 348 */
(PID.TID 0000.0001)                -3.482575200000013E+02,      /* K = 349 */
(PID.TID 0000.0001)                -3.492582600000013E+02,      /* K = 350 */
(PID.TID 0000.0001)                -3.502590000000013E+02,      /* K = 351 */
(PID.TID 0000.0001)                -3.512597400000013E+02,      /* K = 352 */
(PID.TID 0000.0001)                -3.522604800000013E+02,      /* K = 353 */
(PID.TID 0000.0001)                -3.532612200000013E+02,      /* K = 354 */
(PID.TID 0000.0001)                -3.542619600000013E+02,      /* K = 355 */
(PID.TID 0000.0001)                -3.552627000000013E+02,      /* K = 356 */
(PID.TID 0000.0001)                -3.562634400000013E+02,      /* K = 357 */
(PID.TID 0000.0001)                -3.572641800000013E+02,      /* K = 358 */
(PID.TID 0000.0001)                -3.582649200000013E+02,      /* K = 359 */
(PID.TID 0000.0001)                -3.592656600000013E+02,      /* K = 360 */
(PID.TID 0000.0001)                -3.602664000000013E+02,      /* K = 361 */
(PID.TID 0000.0001)                -3.612671400000013E+02,      /* K = 362 */
(PID.TID 0000.0001)                -3.622678800000014E+02,      /* K = 363 */
(PID.TID 0000.0001)                -3.632686200000014E+02,      /* K = 364 */
(PID.TID 0000.0001)                -3.642693600000014E+02,      /* K = 365 */
(PID.TID 0000.0001)                -3.652701000000014E+02,      /* K = 366 */
(PID.TID 0000.0001)                -3.662708400000014E+02,      /* K = 367 */
(PID.TID 0000.0001)                -3.672715800000014E+02,      /* K = 368 */
(PID.TID 0000.0001)                -3.682723200000014E+02,      /* K = 369 */
(PID.TID 0000.0001)                -3.692730600000014E+02,      /* K = 370 */
(PID.TID 0000.0001)                -3.702738000000014E+02,      /* K = 371 */
(PID.TID 0000.0001)                -3.712745400000014E+02,      /* K = 372 */
(PID.TID 0000.0001)                -3.722752800000014E+02,      /* K = 373 */
(PID.TID 0000.0001)                -3.732760200000014E+02,      /* K = 374 */
(PID.TID 0000.0001)                -3.742767600000014E+02,      /* K = 375 */
(PID.TID 0000.0001)                -3.752775000000015E+02,      /* K = 376 */
(PID.TID 0000.0001)                -3.762782400000015E+02,      /* K = 377 */
(PID.TID 0000.0001)                -3.772789800000015E+02,      /* K = 378 */
(PID.TID 0000.0001)                -3.782797200000015E+02,      /* K = 379 */
(PID.TID 0000.0001)                -3.792804600000015E+02,      /* K = 380 */
(PID.TID 0000.0001)                -3.802812000000015E+02,      /* K = 381 */
(PID.TID 0000.0001)                -3.812819400000015E+02,      /* K = 382 */
(PID.TID 0000.0001)                -3.822826800000015E+02,      /* K = 383 */
(PID.TID 0000.0001)                -3.832834200000015E+02,      /* K = 384 */
(PID.TID 0000.0001)                -3.842841600000015E+02,      /* K = 385 */
(PID.TID 0000.0001)                -3.852849000000015E+02,      /* K = 386 */
(PID.TID 0000.0001)                -3.862856400000015E+02,      /* K = 387 */
(PID.TID 0000.0001)                -3.872863800000015E+02,      /* K = 388 */
(PID.TID 0000.0001)                -3.882871200000016E+02,      /* K = 389 */
(PID.TID 0000.0001)                -3.892878600000016E+02,      /* K = 390 */
(PID.TID 0000.0001)                -3.902886000000016E+02,      /* K = 391 */
(PID.TID 0000.0001)                -3.912893400000016E+02,      /* K = 392 */
(PID.TID 0000.0001)                -3.922900800000016E+02,      /* K = 393 */
(PID.TID 0000.0001)                -3.932908200000016E+02,      /* K = 394 */
(PID.TID 0000.0001)                -3.942915600000016E+02,      /* K = 395 */
(PID.TID 0000.0001)                -3.952923000000016E+02,      /* K = 396 */
(PID.TID 0000.0001)                -3.962930400000016E+02,      /* K = 397 */
(PID.TID 0000.0001)                -3.972937800000016E+02,      /* K = 398 */
(PID.TID 0000.0001)                -3.982945200000016E+02,      /* K = 399 */
(PID.TID 0000.0001)                -3.992952600000016E+02,      /* K = 400 */
(PID.TID 0000.0001)                -4.002960000000016E+02,      /* K = 401 */
(PID.TID 0000.0001)                -4.012967400000016E+02,      /* K = 402 */
(PID.TID 0000.0001)                -4.022974800000017E+02,      /* K = 403 */
(PID.TID 0000.0001)                -4.032982200000017E+02,      /* K = 404 */
(PID.TID 0000.0001)                -4.042989600000017E+02,      /* K = 405 */
(PID.TID 0000.0001)                -4.052997000000017E+02,      /* K = 406 */
(PID.TID 0000.0001)                -4.063004400000017E+02,      /* K = 407 */
(PID.TID 0000.0001)                -4.073011800000017E+02,      /* K = 408 */
(PID.TID 0000.0001)                -4.083019200000017E+02,      /* K = 409 */
(PID.TID 0000.0001)                -4.093026600000017E+02,      /* K = 410 */
(PID.TID 0000.0001)                -4.103034000000017E+02,      /* K = 411 */
(PID.TID 0000.0001)                -4.113041400000017E+02,      /* K = 412 */
(PID.TID 0000.0001)                -4.123048800000017E+02,      /* K = 413 */
(PID.TID 0000.0001)                -4.133056200000017E+02,      /* K = 414 */
(PID.TID 0000.0001)                -4.143063600000017E+02,      /* K = 415 */
(PID.TID 0000.0001)                -4.153071000000018E+02,      /* K = 416 */
(PID.TID 0000.0001)                -4.163078400000018E+02,      /* K = 417 */
(PID.TID 0000.0001)                -4.173085800000018E+02,      /* K = 418 */
(PID.TID 0000.0001)                -4.183093200000018E+02,      /* K = 419 */
(PID.TID 0000.0001)                -4.193100600000018E+02,      /* K = 420 */
(PID.TID 0000.0001)                -4.203108000000018E+02,      /* K = 421 */
(PID.TID 0000.0001)                -4.213115400000018E+02,      /* K = 422 */
(PID.TID 0000.0001)                -4.223122800000018E+02,      /* K = 423 */
(PID.TID 0000.0001)                -4.233130200000018E+02,      /* K = 424 */
(PID.TID 0000.0001)                -4.243137600000018E+02,      /* K = 425 */
(PID.TID 0000.0001)                -4.253145000000018E+02,      /* K = 426 */
(PID.TID 0000.0001)                -4.263152400000018E+02,      /* K = 427 */
(PID.TID 0000.0001)                -4.273159800000018E+02,      /* K = 428 */
(PID.TID 0000.0001)                -4.283167200000019E+02,      /* K = 429 */
(PID.TID 0000.0001)                -4.293174600000019E+02,      /* K = 430 */
(PID.TID 0000.0001)                -4.303182000000019E+02,      /* K = 431 */
(PID.TID 0000.0001)                -4.313189400000019E+02,      /* K = 432 */
(PID.TID 0000.0001)                -4.323196800000019E+02,      /* K = 433 */
(PID.TID 0000.0001)                -4.333204200000019E+02,      /* K = 434 */
(PID.TID 0000.0001)                -4.343211600000019E+02,      /* K = 435 */
(PID.TID 0000.0001)                -4.353219000000019E+02,      /* K = 436 */
(PID.TID 0000.0001)                -4.363226400000019E+02,      /* K = 437 */
(PID.TID 0000.0001)                -4.373233800000019E+02,      /* K = 438 */
(PID.TID 0000.0001)                -4.383241200000019E+02,      /* K = 439 */
(PID.TID 0000.0001)                -4.393248600000019E+02,      /* K = 440 */
(PID.TID 0000.0001)                -4.403256000000019E+02,      /* K = 441 */
(PID.TID 0000.0001)                -4.413263400000019E+02,      /* K = 442 */
(PID.TID 0000.0001)                -4.423270800000020E+02,      /* K = 443 */
(PID.TID 0000.0001)                -4.433278200000020E+02,      /* K = 444 */
(PID.TID 0000.0001)                -4.443285600000020E+02,      /* K = 445 */
(PID.TID 0000.0001)                -4.453293000000020E+02,      /* K = 446 */
(PID.TID 0000.0001)                -4.463300400000020E+02,      /* K = 447 */
(PID.TID 0000.0001)                -4.473307800000020E+02,      /* K = 448 */
(PID.TID 0000.0001)                -4.483315200000020E+02,      /* K = 449 */
(PID.TID 0000.0001)                -4.493322600000020E+02,      /* K = 450 */
(PID.TID 0000.0001)                -4.503330000000020E+02,      /* K = 451 */
(PID.TID 0000.0001)                -4.513337400000020E+02,      /* K = 452 */
(PID.TID 0000.0001)                -4.523344800000020E+02,      /* K = 453 */
(PID.TID 0000.0001)                -4.533352200000020E+02,      /* K = 454 */
(PID.TID 0000.0001)                -4.543359600000020E+02,      /* K = 455 */
(PID.TID 0000.0001)                -4.553367000000021E+02,      /* K = 456 */
(PID.TID 0000.0001)                -4.563374400000021E+02,      /* K = 457 */
(PID.TID 0000.0001)                -4.573381800000021E+02,      /* K = 458 */
(PID.TID 0000.0001)                -4.583389200000021E+02,      /* K = 459 */
(PID.TID 0000.0001)                -4.593396600000021E+02,      /* K = 460 */
(PID.TID 0000.0001)                -4.603404000000021E+02,      /* K = 461 */
(PID.TID 0000.0001)                -4.613411400000021E+02,      /* K = 462 */
(PID.TID 0000.0001)                -4.623418800000021E+02,      /* K = 463 */
(PID.TID 0000.0001)                -4.633426200000021E+02,      /* K = 464 */
(PID.TID 0000.0001)                -4.643433600000021E+02,      /* K = 465 */
(PID.TID 0000.0001)                -4.653441000000021E+02,      /* K = 466 */
(PID.TID 0000.0001)                -4.663448400000021E+02,      /* K = 467 */
(PID.TID 0000.0001)                -4.673455800000021E+02,      /* K = 468 */
(PID.TID 0000.0001)                -4.683463200000022E+02,      /* K = 469 */
(PID.TID 0000.0001)                -4.693470600000022E+02,      /* K = 470 */
(PID.TID 0000.0001)                -4.703478000000022E+02,      /* K = 471 */
(PID.TID 0000.0001)                -4.713485400000022E+02,      /* K = 472 */
(PID.TID 0000.0001)                -4.723492800000022E+02,      /* K = 473 */
(PID.TID 0000.0001)                -4.733500200000022E+02,      /* K = 474 */
(PID.TID 0000.0001)                -4.743507600000022E+02,      /* K = 475 */
(PID.TID 0000.0001)                -4.753515000000022E+02,      /* K = 476 */
(PID.TID 0000.0001)                -4.763522400000022E+02,      /* K = 477 */
(PID.TID 0000.0001)                -4.773529800000022E+02,      /* K = 478 */
(PID.TID 0000.0001)                -4.783537200000022E+02,      /* K = 479 */
(PID.TID 0000.0001)                -4.793544600000022E+02,      /* K = 480 */
(PID.TID 0000.0001)                -4.803552000000022E+02,      /* K = 481 */
(PID.TID 0000.0001)                -4.813559400000022E+02,      /* K = 482 */
(PID.TID 0000.0001)                -4.823566800000023E+02,      /* K = 483 */
(PID.TID 0000.0001)                -4.833574200000023E+02,      /* K = 484 */
(PID.TID 0000.0001)                -4.843581600000023E+02,      /* K = 485 */
(PID.TID 0000.0001)                -4.853589000000023E+02,      /* K = 486 */
(PID.TID 0000.0001)                -4.863596400000023E+02,      /* K = 487 */
(PID.TID 0000.0001)                -4.873603800000023E+02,      /* K = 488 */
(PID.TID 0000.0001)                -4.883611200000023E+02,      /* K = 489 */
(PID.TID 0000.0001)                -4.893618600000023E+02,      /* K = 490 */
(PID.TID 0000.0001)                -4.903626000000023E+02,      /* K = 491 */
(PID.TID 0000.0001)                -4.913633400000023E+02,      /* K = 492 */
(PID.TID 0000.0001)                -4.923640800000023E+02,      /* K = 493 */
(PID.TID 0000.0001)                -4.933648200000023E+02,      /* K = 494 */
(PID.TID 0000.0001)                -4.943655600000023E+02,      /* K = 495 */
(PID.TID 0000.0001)                -4.953663000000024E+02,      /* K = 496 */
(PID.TID 0000.0001)                -4.963670400000024E+02,      /* K = 497 */
(PID.TID 0000.0001)                -4.973677800000024E+02,      /* K = 498 */
(PID.TID 0000.0001)                -4.983685200000024E+02,      /* K = 499 */
(PID.TID 0000.0001)                -4.993692600000024E+02,      /* K = 500 */
(PID.TID 0000.0001)                -5.003700000000024E+02,      /* K = 501 */
(PID.TID 0000.0001)                -5.013707400000024E+02,      /* K = 502 */
(PID.TID 0000.0001)                -5.023714800000024E+02,      /* K = 503 */
(PID.TID 0000.0001)                -5.033722200000024E+02,      /* K = 504 */
(PID.TID 0000.0001)                -5.043729600000024E+02,      /* K = 505 */
(PID.TID 0000.0001)                -5.053737000000024E+02,      /* K = 506 */
(PID.TID 0000.0001)                -5.063744400000024E+02,      /* K = 507 */
(PID.TID 0000.0001)                -5.073751800000024E+02,      /* K = 508 */
(PID.TID 0000.0001)                -5.083759200000025E+02,      /* K = 509 */
(PID.TID 0000.0001)                -5.093766600000025E+02,      /* K = 510 */
(PID.TID 0000.0001)                -5.103774000000025E+02,      /* K = 511 */
(PID.TID 0000.0001)                -5.113781400000025E+02,      /* K = 512 */
(PID.TID 0000.0001)                -5.123788800000025E+02,      /* K = 513 */
(PID.TID 0000.0001)                -5.133796200000024E+02,      /* K = 514 */
(PID.TID 0000.0001)                -5.143803600000024E+02,      /* K = 515 */
(PID.TID 0000.0001)                -5.153811000000023E+02,      /* K = 516 */
(PID.TID 0000.0001)                -5.163818400000023E+02,      /* K = 517 */
(PID.TID 0000.0001)                -5.173825800000022E+02,      /* K = 518 */
(PID.TID 0000.0001)                -5.183833200000022E+02,      /* K = 519 */
(PID.TID 0000.0001)                -5.193840600000021E+02,      /* K = 520 */
(PID.TID 0000.0001)                -5.203848000000021E+02,      /* K = 521 */
(PID.TID 0000.0001)                -5.213855400000020E+02,      /* K = 522 */
(PID.TID 0000.0001)                -5.223862800000020E+02,      /* K = 523 */
(PID.TID 0000.0001)                -5.233870200000019E+02,      /* K = 524 */
(PID.TID 0000.0001)                -5.243877600000019E+02,      /* K = 525 */
(PID.TID 0000.0001)                -5.253885000000018E+02,      /* K = 526 */
(PID.TID 0000.0001)                -5.263892400000018E+02,      /* K = 527 */
(PID.TID 0000.0001)                -5.273899800000017E+02,      /* K = 528 */
(PID.TID 0000.0001)                -5.283907200000017E+02,      /* K = 529 */
(PID.TID 0000.0001)                -5.293914600000016E+02,      /* K = 530 */
(PID.TID 0000.0001)                -5.303922000000016E+02,      /* K = 531 */
(PID.TID 0000.0001)                -5.313929400000015E+02,      /* K = 532 */
(PID.TID 0000.0001)                -5.323936800000015E+02,      /* K = 533 */
(PID.TID 0000.0001)                -5.333944200000014E+02,      /* K = 534 */
(PID.TID 0000.0001)                -5.343951600000014E+02,      /* K = 535 */
(PID.TID 0000.0001)                -5.353959000000013E+02,      /* K = 536 */
(PID.TID 0000.0001)                -5.363966400000013E+02,      /* K = 537 */
(PID.TID 0000.0001)                -5.373973800000012E+02,      /* K = 538 */
(PID.TID 0000.0001)                -5.383981200000012E+02,      /* K = 539 */
(PID.TID 0000.0001)                -5.393988600000012E+02,      /* K = 540 */
(PID.TID 0000.0001)                -5.403996000000011E+02,      /* K = 541 */
(PID.TID 0000.0001)                -5.414003400000011E+02,      /* K = 542 */
(PID.TID 0000.0001)                -5.424010800000010E+02,      /* K = 543 */
(PID.TID 0000.0001)                -5.434018200000010E+02,      /* K = 544 */
(PID.TID 0000.0001)                -5.444025600000009E+02,      /* K = 545 */
(PID.TID 0000.0001)                -5.454033000000009E+02,      /* K = 546 */
(PID.TID 0000.0001)                -5.464040400000008E+02,      /* K = 547 */
(PID.TID 0000.0001)                -5.474047800000008E+02,      /* K = 548 */
(PID.TID 0000.0001)                -5.484055200000007E+02,      /* K = 549 */
(PID.TID 0000.0001)                -5.494062600000007E+02,      /* K = 550 */
(PID.TID 0000.0001)                -5.504070000000006E+02,      /* K = 551 */
(PID.TID 0000.0001)                -5.514077400000006E+02,      /* K = 552 */
(PID.TID 0000.0001)                -5.524084800000005E+02,      /* K = 553 */
(PID.TID 0000.0001)                -5.534092200000005E+02,      /* K = 554 */
(PID.TID 0000.0001)                -5.544099600000004E+02,      /* K = 555 */
(PID.TID 0000.0001)                -5.554107000000004E+02,      /* K = 556 */
(PID.TID 0000.0001)                -5.564114400000003E+02,      /* K = 557 */
(PID.TID 0000.0001)                -5.574121800000003E+02,      /* K = 558 */
(PID.TID 0000.0001)                -5.584129200000002E+02,      /* K = 559 */
(PID.TID 0000.0001)                -5.594136600000002E+02,      /* K = 560 */
(PID.TID 0000.0001)                -5.604144000000001E+02,      /* K = 561 */
(PID.TID 0000.0001)                -5.614151400000001E+02,      /* K = 562 */
(PID.TID 0000.0001)                -5.624158800000000E+02,      /* K = 563 */
(PID.TID 0000.0001)                -5.634166200000000E+02,      /* K = 564 */
(PID.TID 0000.0001)                -5.644173599999999E+02,      /* K = 565 */
(PID.TID 0000.0001)                -5.654180999999999E+02,      /* K = 566 */
(PID.TID 0000.0001)                -5.664188399999998E+02,      /* K = 567 */
(PID.TID 0000.0001)                -5.674195799999998E+02,      /* K = 568 */
(PID.TID 0000.0001)                -5.684203199999997E+02,      /* K = 569 */
(PID.TID 0000.0001)                -5.694210599999997E+02,      /* K = 570 */
(PID.TID 0000.0001)                -5.704217999999996E+02,      /* K = 571 */
(PID.TID 0000.0001)                -5.714225399999996E+02,      /* K = 572 */
(PID.TID 0000.0001)                -5.724232799999995E+02,      /* K = 573 */
(PID.TID 0000.0001)                -5.734240199999995E+02,      /* K = 574 */
(PID.TID 0000.0001)                -5.744247599999994E+02,      /* K = 575 */
(PID.TID 0000.0001)                -5.754254999999994E+02,      /* K = 576 */
(PID.TID 0000.0001)                -5.764262399999993E+02,      /* K = 577 */
(PID.TID 0000.0001)                -5.774269799999993E+02,      /* K = 578 */
(PID.TID 0000.0001)                -5.784277199999992E+02,      /* K = 579 */
(PID.TID 0000.0001)                -5.794284599999992E+02,      /* K = 580 */
(PID.TID 0000.0001)                -5.804291999999991E+02,      /* K = 581 */
(PID.TID 0000.0001)                -5.814299399999991E+02,      /* K = 582 */
(PID.TID 0000.0001)                -5.824306799999990E+02,      /* K = 583 */
(PID.TID 0000.0001)                -5.834314199999990E+02,      /* K = 584 */
(PID.TID 0000.0001)                -5.844321599999989E+02,      /* K = 585 */
(PID.TID 0000.0001)                -5.854328999999989E+02,      /* K = 586 */
(PID.TID 0000.0001)                -5.864336399999988E+02,      /* K = 587 */
(PID.TID 0000.0001)                -5.874343799999988E+02,      /* K = 588 */
(PID.TID 0000.0001)                -5.884351199999987E+02,      /* K = 589 */
(PID.TID 0000.0001)                -5.894358599999987E+02,      /* K = 590 */
(PID.TID 0000.0001)                -5.904365999999986E+02,      /* K = 591 */
(PID.TID 0000.0001)                -5.914373399999986E+02,      /* K = 592 */
(PID.TID 0000.0001)                -5.924380799999985E+02,      /* K = 593 */
(PID.TID 0000.0001)                -5.934388199999985E+02,      /* K = 594 */
(PID.TID 0000.0001)                -5.944395599999984E+02,      /* K = 595 */
(PID.TID 0000.0001)                -5.954402999999984E+02,      /* K = 596 */
(PID.TID 0000.0001)                -5.964410399999983E+02,      /* K = 597 */
(PID.TID 0000.0001)                -5.974417799999983E+02,      /* K = 598 */
(PID.TID 0000.0001)                -5.984425199999982E+02,      /* K = 599 */
(PID.TID 0000.0001)                -5.994432599999982E+02,      /* K = 600 */
(PID.TID 0000.0001)                -6.004439999999981E+02,      /* K = 601 */
(PID.TID 0000.0001)                -6.014447399999981E+02,      /* K = 602 */
(PID.TID 0000.0001)                -6.024454799999980E+02,      /* K = 603 */
(PID.TID 0000.0001)                -6.034462199999980E+02,      /* K = 604 */
(PID.TID 0000.0001)                -6.044469599999979E+02,      /* K = 605 */
(PID.TID 0000.0001)                -6.054476999999979E+02,      /* K = 606 */
(PID.TID 0000.0001)                -6.064484399999978E+02,      /* K = 607 */
(PID.TID 0000.0001)                -6.074491799999978E+02,      /* K = 608 */
(PID.TID 0000.0001)                -6.084499199999977E+02,      /* K = 609 */
(PID.TID 0000.0001)                -6.094506599999977E+02,      /* K = 610 */
(PID.TID 0000.0001)                -6.104513999999976E+02,      /* K = 611 */
(PID.TID 0000.0001)                -6.114521399999976E+02,      /* K = 612 */
(PID.TID 0000.0001)                -6.124528799999975E+02,      /* K = 613 */
(PID.TID 0000.0001)                -6.134536199999975E+02,      /* K = 614 */
(PID.TID 0000.0001)                -6.144543599999975E+02,      /* K = 615 */
(PID.TID 0000.0001)                -6.154550999999974E+02,      /* K = 616 */
(PID.TID 0000.0001)                -6.164558399999974E+02,      /* K = 617 */
(PID.TID 0000.0001)                -6.174565799999973E+02,      /* K = 618 */
(PID.TID 0000.0001)                -6.184573199999973E+02,      /* K = 619 */
(PID.TID 0000.0001)                -6.194580599999972E+02,      /* K = 620 */
(PID.TID 0000.0001)                -6.204587999999972E+02,      /* K = 621 */
(PID.TID 0000.0001)                -6.214595399999971E+02,      /* K = 622 */
(PID.TID 0000.0001)                -6.224602799999971E+02,      /* K = 623 */
(PID.TID 0000.0001)                -6.234610199999970E+02,      /* K = 624 */
(PID.TID 0000.0001)                -6.244617599999970E+02,      /* K = 625 */
(PID.TID 0000.0001)                -6.254624999999969E+02,      /* K = 626 */
(PID.TID 0000.0001)                -6.264632399999969E+02,      /* K = 627 */
(PID.TID 0000.0001)                -6.274639799999968E+02,      /* K = 628 */
(PID.TID 0000.0001)                -6.284647199999968E+02,      /* K = 629 */
(PID.TID 0000.0001)                -6.294654599999967E+02,      /* K = 630 */
(PID.TID 0000.0001)                -6.304661999999967E+02,      /* K = 631 */
(PID.TID 0000.0001)                -6.314669399999966E+02,      /* K = 632 */
(PID.TID 0000.0001)                -6.324676799999966E+02,      /* K = 633 */
(PID.TID 0000.0001)                -6.334684199999965E+02,      /* K = 634 */
(PID.TID 0000.0001)                -6.344691599999965E+02,      /* K = 635 */
(PID.TID 0000.0001)                -6.354698999999964E+02,      /* K = 636 */
(PID.TID 0000.0001)                -6.364706399999964E+02,      /* K = 637 */
(PID.TID 0000.0001)                -6.374713799999963E+02,      /* K = 638 */
(PID.TID 0000.0001)                -6.384721199999963E+02,      /* K = 639 */
(PID.TID 0000.0001)                -6.394728599999962E+02,      /* K = 640 */
(PID.TID 0000.0001)                -6.404735999999962E+02,      /* K = 641 */
(PID.TID 0000.0001)                -6.414743399999961E+02,      /* K = 642 */
(PID.TID 0000.0001)                -6.424750799999961E+02,      /* K = 643 */
(PID.TID 0000.0001)                -6.434758199999960E+02,      /* K = 644 */
(PID.TID 0000.0001)                -6.444765599999960E+02,      /* K = 645 */
(PID.TID 0000.0001)                -6.454772999999959E+02,      /* K = 646 */
(PID.TID 0000.0001)                -6.464780399999959E+02,      /* K = 647 */
(PID.TID 0000.0001)                -6.474787799999958E+02,      /* K = 648 */
(PID.TID 0000.0001)                -6.484795199999958E+02,      /* K = 649 */
(PID.TID 0000.0001)                -6.494802599999957E+02,      /* K = 650 */
(PID.TID 0000.0001)                -6.504809999999957E+02,      /* K = 651 */
(PID.TID 0000.0001)                -6.514817399999956E+02,      /* K = 652 */
(PID.TID 0000.0001)                -6.524824799999956E+02,      /* K = 653 */
(PID.TID 0000.0001)                -6.534832199999955E+02,      /* K = 654 */
(PID.TID 0000.0001)                -6.544839599999955E+02,      /* K = 655 */
(PID.TID 0000.0001)                -6.554846999999954E+02,      /* K = 656 */
(PID.TID 0000.0001)                -6.564854399999954E+02,      /* K = 657 */
(PID.TID 0000.0001)                -6.574861799999953E+02,      /* K = 658 */
(PID.TID 0000.0001)                -6.584869199999953E+02,      /* K = 659 */
(PID.TID 0000.0001)                -6.594876599999952E+02,      /* K = 660 */
(PID.TID 0000.0001)                -6.604883999999952E+02,      /* K = 661 */
(PID.TID 0000.0001)                -6.614891399999951E+02,      /* K = 662 */
(PID.TID 0000.0001)                -6.624898799999951E+02,      /* K = 663 */
(PID.TID 0000.0001)                -6.634906199999950E+02,      /* K = 664 */
(PID.TID 0000.0001)                -6.644913599999950E+02,      /* K = 665 */
(PID.TID 0000.0001)                -6.654920999999949E+02,      /* K = 666 */
(PID.TID 0000.0001)                -6.664928399999949E+02,      /* K = 667 */
(PID.TID 0000.0001)                -6.674935799999948E+02,      /* K = 668 */
(PID.TID 0000.0001)                -6.684943199999948E+02,      /* K = 669 */
(PID.TID 0000.0001)                -6.694950599999947E+02,      /* K = 670 */
(PID.TID 0000.0001)                -6.704957999999947E+02,      /* K = 671 */
(PID.TID 0000.0001)                -6.714965399999946E+02,      /* K = 672 */
(PID.TID 0000.0001)                -6.724972799999946E+02,      /* K = 673 */
(PID.TID 0000.0001)                -6.734980199999945E+02,      /* K = 674 */
(PID.TID 0000.0001)                -6.744987599999945E+02,      /* K = 675 */
(PID.TID 0000.0001)                -6.754994999999944E+02,      /* K = 676 */
(PID.TID 0000.0001)                -6.765002399999944E+02,      /* K = 677 */
(PID.TID 0000.0001)                -6.775009799999943E+02,      /* K = 678 */
(PID.TID 0000.0001)                -6.785017199999943E+02,      /* K = 679 */
(PID.TID 0000.0001)                -6.795024599999942E+02,      /* K = 680 */
(PID.TID 0000.0001)                -6.805031999999942E+02,      /* K = 681 */
(PID.TID 0000.0001)                -6.815039399999941E+02,      /* K = 682 */
(PID.TID 0000.0001)                -6.825046799999941E+02,      /* K = 683 */
(PID.TID 0000.0001)                -6.835054199999940E+02,      /* K = 684 */
(PID.TID 0000.0001)                -6.845061599999940E+02,      /* K = 685 */
(PID.TID 0000.0001)                -6.855068999999939E+02,      /* K = 686 */
(PID.TID 0000.0001)                -6.865076399999939E+02,      /* K = 687 */
(PID.TID 0000.0001)                -6.875083799999938E+02,      /* K = 688 */
(PID.TID 0000.0001)                -6.885091199999938E+02,      /* K = 689 */
(PID.TID 0000.0001)                -6.895098599999938E+02,      /* K = 690 */
(PID.TID 0000.0001)                -6.905105999999937E+02,      /* K = 691 */
(PID.TID 0000.0001)                -6.915113399999937E+02,      /* K = 692 */
(PID.TID 0000.0001)                -6.925120799999936E+02,      /* K = 693 */
(PID.TID 0000.0001)                -6.935128199999936E+02,      /* K = 694 */
(PID.TID 0000.0001)                -6.945135599999935E+02,      /* K = 695 */
(PID.TID 0000.0001)                -6.955142999999935E+02,      /* K = 696 */
(PID.TID 0000.0001)                -6.965150399999934E+02,      /* K = 697 */
(PID.TID 0000.0001)                -6.975157799999934E+02,      /* K = 698 */
(PID.TID 0000.0001)                -6.985165199999933E+02,      /* K = 699 */
(PID.TID 0000.0001)                -6.995172599999933E+02,      /* K = 700 */
(PID.TID 0000.0001)                -7.005179999999932E+02,      /* K = 701 */
(PID.TID 0000.0001)                -7.015187399999932E+02,      /* K = 702 */
(PID.TID 0000.0001)                -7.025194799999931E+02,      /* K = 703 */
(PID.TID 0000.0001)                -7.035202199999931E+02,      /* K = 704 */
(PID.TID 0000.0001)                -7.045209599999930E+02,      /* K = 705 */
(PID.TID 0000.0001)                -7.055216999999930E+02,      /* K = 706 */
(PID.TID 0000.0001)                -7.065224399999929E+02,      /* K = 707 */
(PID.TID 0000.0001)                -7.075231799999929E+02,      /* K = 708 */
(PID.TID 0000.0001)                -7.085239199999928E+02,      /* K = 709 */
(PID.TID 0000.0001)                -7.095246599999928E+02,      /* K = 710 */
(PID.TID 0000.0001)                -7.105253999999927E+02,      /* K = 711 */
(PID.TID 0000.0001)                -7.115261399999927E+02,      /* K = 712 */
(PID.TID 0000.0001)                -7.125268799999926E+02,      /* K = 713 */
(PID.TID 0000.0001)                -7.135276199999926E+02,      /* K = 714 */
(PID.TID 0000.0001)                -7.145283599999925E+02,      /* K = 715 */
(PID.TID 0000.0001)                -7.155290999999925E+02,      /* K = 716 */
(PID.TID 0000.0001)                -7.165298399999924E+02,      /* K = 717 */
(PID.TID 0000.0001)                -7.175305799999924E+02,      /* K = 718 */
(PID.TID 0000.0001)                -7.185313199999923E+02,      /* K = 719 */
(PID.TID 0000.0001)                -7.195320599999923E+02,      /* K = 720 */
(PID.TID 0000.0001)                -7.205327999999922E+02,      /* K = 721 */
(PID.TID 0000.0001)                -7.215335399999922E+02,      /* K = 722 */
(PID.TID 0000.0001)                -7.225342799999921E+02,      /* K = 723 */
(PID.TID 0000.0001)                -7.235350199999921E+02,      /* K = 724 */
(PID.TID 0000.0001)                -7.245357599999920E+02,      /* K = 725 */
(PID.TID 0000.0001)                -7.255364999999920E+02,      /* K = 726 */
(PID.TID 0000.0001)                -7.265372399999919E+02,      /* K = 727 */
(PID.TID 0000.0001)                -7.275379799999919E+02,      /* K = 728 */
(PID.TID 0000.0001)                -7.285387199999918E+02,      /* K = 729 */
(PID.TID 0000.0001)                -7.295394599999918E+02,      /* K = 730 */
(PID.TID 0000.0001)                -7.305401999999917E+02,      /* K = 731 */
(PID.TID 0000.0001)                -7.315409399999917E+02,      /* K = 732 */
(PID.TID 0000.0001)                -7.325416799999916E+02,      /* K = 733 */
(PID.TID 0000.0001)                -7.335424199999916E+02,      /* K = 734 */
(PID.TID 0000.0001)                -7.345431599999915E+02,      /* K = 735 */
(PID.TID 0000.0001)                -7.355438999999915E+02,      /* K = 736 */
(PID.TID 0000.0001)                -7.365446399999914E+02,      /* K = 737 */
(PID.TID 0000.0001)                -7.375453799999914E+02,      /* K = 738 */
(PID.TID 0000.0001)                -7.385461199999913E+02,      /* K = 739 */
(PID.TID 0000.0001)                -7.395468599999913E+02,      /* K = 740 */
(PID.TID 0000.0001)                -7.405475999999912E+02,      /* K = 741 */
(PID.TID 0000.0001)                -7.415483399999912E+02,      /* K = 742 */
(PID.TID 0000.0001)                -7.425490799999911E+02,      /* K = 743 */
(PID.TID 0000.0001)                -7.435498199999911E+02,      /* K = 744 */
(PID.TID 0000.0001)                -7.445505599999910E+02,      /* K = 745 */
(PID.TID 0000.0001)                -7.455512999999910E+02,      /* K = 746 */
(PID.TID 0000.0001)                -7.465520399999909E+02,      /* K = 747 */
(PID.TID 0000.0001)                -7.475527799999909E+02,      /* K = 748 */
(PID.TID 0000.0001)                -7.485535199999908E+02,      /* K = 749 */
(PID.TID 0000.0001)                -7.495542599999908E+02,      /* K = 750 */
(PID.TID 0000.0001)                -7.505549999999907E+02,      /* K = 751 */
(PID.TID 0000.0001)                -7.515557399999907E+02,      /* K = 752 */
(PID.TID 0000.0001)                -7.525564799999906E+02,      /* K = 753 */
(PID.TID 0000.0001)                -7.535572199999906E+02,      /* K = 754 */
(PID.TID 0000.0001)                -7.545579599999905E+02,      /* K = 755 */
(PID.TID 0000.0001)                -7.555586999999905E+02,      /* K = 756 */
(PID.TID 0000.0001)                -7.565594399999904E+02,      /* K = 757 */
(PID.TID 0000.0001)                -7.575601799999904E+02,      /* K = 758 */
(PID.TID 0000.0001)                -7.585609199999903E+02,      /* K = 759 */
(PID.TID 0000.0001)                -7.595616599999903E+02,      /* K = 760 */
(PID.TID 0000.0001)                -7.605623999999902E+02,      /* K = 761 */
(PID.TID 0000.0001)                -7.615631399999902E+02,      /* K = 762 */
(PID.TID 0000.0001)                -7.625638799999901E+02,      /* K = 763 */
(PID.TID 0000.0001)                -7.635646199999901E+02,      /* K = 764 */
(PID.TID 0000.0001)                -7.645653599999901E+02,      /* K = 765 */
(PID.TID 0000.0001)                -7.655660999999900E+02,      /* K = 766 */
(PID.TID 0000.0001)                -7.665668399999900E+02,      /* K = 767 */
(PID.TID 0000.0001)                -7.675675799999899E+02,      /* K = 768 */
(PID.TID 0000.0001)                -7.685683199999899E+02,      /* K = 769 */
(PID.TID 0000.0001)                -7.695690599999898E+02,      /* K = 770 */
(PID.TID 0000.0001)                -7.705697999999898E+02,      /* K = 771 */
(PID.TID 0000.0001)                -7.715705399999897E+02,      /* K = 772 */
(PID.TID 0000.0001)                -7.725712799999897E+02,      /* K = 773 */
(PID.TID 0000.0001)                -7.735720199999896E+02,      /* K = 774 */
(PID.TID 0000.0001)                -7.745727599999896E+02,      /* K = 775 */
(PID.TID 0000.0001)                -7.755734999999895E+02,      /* K = 776 */
(PID.TID 0000.0001)                -7.765742399999895E+02,      /* K = 777 */
(PID.TID 0000.0001)                -7.775749799999894E+02,      /* K = 778 */
(PID.TID 0000.0001)                -7.785757199999894E+02,      /* K = 779 */
(PID.TID 0000.0001)                -7.795764599999893E+02,      /* K = 780 */
(PID.TID 0000.0001)                -7.805771999999893E+02,      /* K = 781 */
(PID.TID 0000.0001)                -7.815779399999892E+02,      /* K = 782 */
(PID.TID 0000.0001)                -7.825786799999892E+02,      /* K = 783 */
(PID.TID 0000.0001)                -7.835794199999891E+02,      /* K = 784 */
(PID.TID 0000.0001)                -7.845801599999891E+02,      /* K = 785 */
(PID.TID 0000.0001)                -7.855808999999890E+02,      /* K = 786 */
(PID.TID 0000.0001)                -7.865816399999890E+02,      /* K = 787 */
(PID.TID 0000.0001)                -7.875823799999889E+02,      /* K = 788 */
(PID.TID 0000.0001)                -7.885831199999889E+02,      /* K = 789 */
(PID.TID 0000.0001)                -7.895838599999888E+02,      /* K = 790 */
(PID.TID 0000.0001)                -7.905845999999888E+02,      /* K = 791 */
(PID.TID 0000.0001)                -7.915853399999887E+02,      /* K = 792 */
(PID.TID 0000.0001)                -7.925860799999887E+02,      /* K = 793 */
(PID.TID 0000.0001)                -7.935868199999886E+02,      /* K = 794 */
(PID.TID 0000.0001)                -7.945875599999886E+02,      /* K = 795 */
(PID.TID 0000.0001)                -7.955882999999885E+02,      /* K = 796 */
(PID.TID 0000.0001)                -7.965890399999885E+02,      /* K = 797 */
(PID.TID 0000.0001)                -7.975897799999884E+02,      /* K = 798 */
(PID.TID 0000.0001)                -7.985905199999884E+02,      /* K = 799 */
(PID.TID 0000.0001)                -7.995912599999883E+02,      /* K = 800 */
(PID.TID 0000.0001)                -8.005919999999883E+02,      /* K = 801 */
(PID.TID 0000.0001)                -8.015927399999882E+02,      /* K = 802 */
(PID.TID 0000.0001)                -8.025934799999882E+02,      /* K = 803 */
(PID.TID 0000.0001)                -8.035942199999881E+02,      /* K = 804 */
(PID.TID 0000.0001)                -8.045949599999881E+02,      /* K = 805 */
(PID.TID 0000.0001)                -8.055956999999880E+02,      /* K = 806 */
(PID.TID 0000.0001)                -8.065964399999880E+02,      /* K = 807 */
(PID.TID 0000.0001)                -8.075971799999879E+02,      /* K = 808 */
(PID.TID 0000.0001)                -8.085979199999879E+02,      /* K = 809 */
(PID.TID 0000.0001)                -8.095986599999878E+02,      /* K = 810 */
(PID.TID 0000.0001)                -8.105993999999878E+02,      /* K = 811 */
(PID.TID 0000.0001)                -8.116001399999877E+02,      /* K = 812 */
(PID.TID 0000.0001)                -8.126008799999877E+02,      /* K = 813 */
(PID.TID 0000.0001)                -8.136016199999876E+02,      /* K = 814 */
(PID.TID 0000.0001)                -8.146023599999876E+02,      /* K = 815 */
(PID.TID 0000.0001)                -8.156030999999875E+02,      /* K = 816 */
(PID.TID 0000.0001)                -8.166038399999875E+02,      /* K = 817 */
(PID.TID 0000.0001)                -8.176045799999874E+02,      /* K = 818 */
(PID.TID 0000.0001)                -8.186053199999874E+02,      /* K = 819 */
(PID.TID 0000.0001)                -8.196060599999873E+02,      /* K = 820 */
(PID.TID 0000.0001)                -8.206067999999873E+02,      /* K = 821 */
(PID.TID 0000.0001)                -8.216075399999872E+02,      /* K = 822 */
(PID.TID 0000.0001)                -8.226082799999872E+02,      /* K = 823 */
(PID.TID 0000.0001)                -8.236090199999871E+02,      /* K = 824 */
(PID.TID 0000.0001)                -8.246097599999871E+02,      /* K = 825 */
(PID.TID 0000.0001)                -8.256104999999870E+02,      /* K = 826 */
(PID.TID 0000.0001)                -8.266112399999870E+02,      /* K = 827 */
(PID.TID 0000.0001)                -8.276119799999869E+02,      /* K = 828 */
(PID.TID 0000.0001)                -8.286127199999869E+02,      /* K = 829 */
(PID.TID 0000.0001)                -8.296134599999868E+02,      /* K = 830 */
(PID.TID 0000.0001)                -8.306141999999868E+02,      /* K = 831 */
(PID.TID 0000.0001)                -8.316149399999867E+02,      /* K = 832 */
(PID.TID 0000.0001)                -8.326156799999867E+02,      /* K = 833 */
(PID.TID 0000.0001)                -8.336164199999866E+02,      /* K = 834 */
(PID.TID 0000.0001)                -8.346171599999866E+02,      /* K = 835 */
(PID.TID 0000.0001)                -8.356178999999865E+02,      /* K = 836 */
(PID.TID 0000.0001)                -8.366186399999865E+02,      /* K = 837 */
(PID.TID 0000.0001)                -8.376193799999864E+02,      /* K = 838 */
(PID.TID 0000.0001)                -8.386201199999864E+02,      /* K = 839 */
(PID.TID 0000.0001)                -8.396208599999864E+02,      /* K = 840 */
(PID.TID 0000.0001)                -8.406215999999863E+02,      /* K = 841 */
(PID.TID 0000.0001)                -8.416223399999863E+02,      /* K = 842 */
(PID.TID 0000.0001)                -8.426230799999862E+02,      /* K = 843 */
(PID.TID 0000.0001)                -8.436238199999862E+02,      /* K = 844 */
(PID.TID 0000.0001)                -8.446245599999861E+02,      /* K = 845 */
(PID.TID 0000.0001)                -8.456252999999861E+02,      /* K = 846 */
(PID.TID 0000.0001)                -8.466260399999860E+02,      /* K = 847 */
(PID.TID 0000.0001)                -8.476267799999860E+02,      /* K = 848 */
(PID.TID 0000.0001)                -8.486275199999859E+02,      /* K = 849 */
(PID.TID 0000.0001)                -8.496282599999859E+02,      /* K = 850 */
(PID.TID 0000.0001)                -8.506289999999858E+02,      /* K = 851 */
(PID.TID 0000.0001)                -8.516297399999858E+02,      /* K = 852 */
(PID.TID 0000.0001)                -8.526304799999857E+02,      /* K = 853 */
(PID.TID 0000.0001)                -8.536312199999857E+02,      /* K = 854 */
(PID.TID 0000.0001)                -8.546319599999856E+02,      /* K = 855 */
(PID.TID 0000.0001)                -8.556326999999856E+02,      /* K = 856 */
(PID.TID 0000.0001)                -8.566334399999855E+02,      /* K = 857 */
(PID.TID 0000.0001)                -8.576341799999855E+02,      /* K = 858 */
(PID.TID 0000.0001)                -8.586349199999854E+02,      /* K = 859 */
(PID.TID 0000.0001)                -8.596356599999854E+02,      /* K = 860 */
(PID.TID 0000.0001)                -8.606363999999853E+02,      /* K = 861 */
(PID.TID 0000.0001)                -8.616371399999853E+02,      /* K = 862 */
(PID.TID 0000.0001)                -8.626378799999852E+02,      /* K = 863 */
(PID.TID 0000.0001)                -8.636386199999852E+02,      /* K = 864 */
(PID.TID 0000.0001)                -8.646393599999851E+02,      /* K = 865 */
(PID.TID 0000.0001)                -8.656400999999851E+02,      /* K = 866 */
(PID.TID 0000.0001)                -8.666408399999850E+02,      /* K = 867 */
(PID.TID 0000.0001)                -8.676415799999850E+02,      /* K = 868 */
(PID.TID 0000.0001)                -8.686423199999849E+02,      /* K = 869 */
(PID.TID 0000.0001)                -8.696430599999849E+02,      /* K = 870 */
(PID.TID 0000.0001)                -8.706437999999848E+02,      /* K = 871 */
(PID.TID 0000.0001)                -8.716445399999848E+02,      /* K = 872 */
(PID.TID 0000.0001)                -8.726452799999847E+02,      /* K = 873 */
(PID.TID 0000.0001)                -8.736460199999847E+02,      /* K = 874 */
(PID.TID 0000.0001)                -8.746467599999846E+02,      /* K = 875 */
(PID.TID 0000.0001)                -8.756474999999846E+02,      /* K = 876 */
(PID.TID 0000.0001)                -8.766482399999845E+02,      /* K = 877 */
(PID.TID 0000.0001)                -8.776489799999845E+02,      /* K = 878 */
(PID.TID 0000.0001)                -8.786497199999844E+02,      /* K = 879 */
(PID.TID 0000.0001)                -8.796504599999844E+02,      /* K = 880 */
(PID.TID 0000.0001)                -8.806511999999843E+02,      /* K = 881 */
(PID.TID 0000.0001)                -8.816519399999843E+02,      /* K = 882 */
(PID.TID 0000.0001)                -8.826526799999842E+02,      /* K = 883 */
(PID.TID 0000.0001)                -8.836534199999842E+02,      /* K = 884 */
(PID.TID 0000.0001)                -8.846541599999841E+02,      /* K = 885 */
(PID.TID 0000.0001)                -8.856548999999841E+02,      /* K = 886 */
(PID.TID 0000.0001)                -8.866556399999840E+02,      /* K = 887 */
(PID.TID 0000.0001)                -8.876563799999840E+02,      /* K = 888 */
(PID.TID 0000.0001)                -8.886571199999839E+02,      /* K = 889 */
(PID.TID 0000.0001)                -8.896578599999839E+02,      /* K = 890 */
(PID.TID 0000.0001)                -8.906585999999838E+02,      /* K = 891 */
(PID.TID 0000.0001)                -8.916593399999838E+02,      /* K = 892 */
(PID.TID 0000.0001)                -8.926600799999837E+02,      /* K = 893 */
(PID.TID 0000.0001)                -8.936608199999837E+02,      /* K = 894 */
(PID.TID 0000.0001)                -8.946615599999836E+02,      /* K = 895 */
(PID.TID 0000.0001)                -8.956622999999836E+02,      /* K = 896 */
(PID.TID 0000.0001)                -8.966630399999835E+02,      /* K = 897 */
(PID.TID 0000.0001)                -8.976637799999835E+02,      /* K = 898 */
(PID.TID 0000.0001)                -8.986645199999834E+02,      /* K = 899 */
(PID.TID 0000.0001)                -8.996652599999834E+02,      /* K = 900 */
(PID.TID 0000.0001)                -9.006659999999833E+02,      /* K = 901 */
(PID.TID 0000.0001)                -9.016667399999833E+02,      /* K = 902 */
(PID.TID 0000.0001)                -9.026674799999832E+02,      /* K = 903 */
(PID.TID 0000.0001)                -9.036682199999832E+02,      /* K = 904 */
(PID.TID 0000.0001)                -9.046689599999831E+02,      /* K = 905 */
(PID.TID 0000.0001)                -9.056696999999831E+02,      /* K = 906 */
(PID.TID 0000.0001)                -9.066704399999830E+02,      /* K = 907 */
(PID.TID 0000.0001)                -9.076711799999830E+02,      /* K = 908 */
(PID.TID 0000.0001)                -9.086719199999829E+02,      /* K = 909 */
(PID.TID 0000.0001)                -9.096726599999829E+02,      /* K = 910 */
(PID.TID 0000.0001)                -9.106733999999828E+02,      /* K = 911 */
(PID.TID 0000.0001)                -9.116741399999828E+02,      /* K = 912 */
(PID.TID 0000.0001)                -9.126748799999827E+02,      /* K = 913 */
(PID.TID 0000.0001)                -9.136756199999827E+02,      /* K = 914 */
(PID.TID 0000.0001)                -9.146763599999827E+02,      /* K = 915 */
(PID.TID 0000.0001)                -9.156770999999826E+02,      /* K = 916 */
(PID.TID 0000.0001)                -9.166778399999826E+02,      /* K = 917 */
(PID.TID 0000.0001)                -9.176785799999825E+02,      /* K = 918 */
(PID.TID 0000.0001)                -9.186793199999825E+02,      /* K = 919 */
(PID.TID 0000.0001)                -9.196800599999824E+02,      /* K = 920 */
(PID.TID 0000.0001)                -9.206807999999824E+02,      /* K = 921 */
(PID.TID 0000.0001)                -9.216815399999823E+02,      /* K = 922 */
(PID.TID 0000.0001)                -9.226822799999823E+02,      /* K = 923 */
(PID.TID 0000.0001)                -9.236830199999822E+02,      /* K = 924 */
(PID.TID 0000.0001)                -9.246837599999822E+02,      /* K = 925 */
(PID.TID 0000.0001)                -9.256844999999821E+02,      /* K = 926 */
(PID.TID 0000.0001)                -9.266852399999821E+02,      /* K = 927 */
(PID.TID 0000.0001)                -9.276859799999820E+02,      /* K = 928 */
(PID.TID 0000.0001)                -9.286867199999820E+02,      /* K = 929 */
(PID.TID 0000.0001)                -9.296874599999819E+02,      /* K = 930 */
(PID.TID 0000.0001)                -9.306881999999819E+02,      /* K = 931 */
(PID.TID 0000.0001)                -9.316889399999818E+02,      /* K = 932 */
(PID.TID 0000.0001)                -9.326896799999818E+02,      /* K = 933 */
(PID.TID 0000.0001)                -9.336904199999817E+02,      /* K = 934 */
(PID.TID 0000.0001)                -9.346911599999817E+02,      /* K = 935 */
(PID.TID 0000.0001)                -9.356918999999816E+02,      /* K = 936 */
(PID.TID 0000.0001)                -9.366926399999816E+02,      /* K = 937 */
(PID.TID 0000.0001)                -9.376933799999815E+02,      /* K = 938 */
(PID.TID 0000.0001)                -9.386941199999815E+02,      /* K = 939 */
(PID.TID 0000.0001)                -9.396948599999814E+02,      /* K = 940 */
(PID.TID 0000.0001)                -9.406955999999814E+02,      /* K = 941 */
(PID.TID 0000.0001)                -9.416963399999813E+02,      /* K = 942 */
(PID.TID 0000.0001)                -9.426970799999813E+02,      /* K = 943 */
(PID.TID 0000.0001)                -9.436978199999812E+02,      /* K = 944 */
(PID.TID 0000.0001)                -9.446985599999812E+02,      /* K = 945 */
(PID.TID 0000.0001)                -9.456992999999811E+02,      /* K = 946 */
(PID.TID 0000.0001)                -9.467000399999811E+02,      /* K = 947 */
(PID.TID 0000.0001)                -9.477007799999810E+02,      /* K = 948 */
(PID.TID 0000.0001)                -9.487015199999810E+02,      /* K = 949 */
(PID.TID 0000.0001)                -9.497022599999809E+02,      /* K = 950 */
(PID.TID 0000.0001)                -9.507029999999809E+02,      /* K = 951 */
(PID.TID 0000.0001)                -9.517037399999808E+02,      /* K = 952 */
(PID.TID 0000.0001)                -9.527044799999808E+02,      /* K = 953 */
(PID.TID 0000.0001)                -9.537052199999807E+02,      /* K = 954 */
(PID.TID 0000.0001)                -9.547059599999807E+02,      /* K = 955 */
(PID.TID 0000.0001)                -9.557066999999806E+02,      /* K = 956 */
(PID.TID 0000.0001)                -9.567074399999806E+02,      /* K = 957 */
(PID.TID 0000.0001)                -9.577081799999805E+02,      /* K = 958 */
(PID.TID 0000.0001)                -9.587089199999805E+02,      /* K = 959 */
(PID.TID 0000.0001)                -9.597096599999804E+02,      /* K = 960 */
(PID.TID 0000.0001)                -9.607103999999804E+02,      /* K = 961 */
(PID.TID 0000.0001)                -9.617111399999803E+02,      /* K = 962 */
(PID.TID 0000.0001)                -9.627118799999803E+02,      /* K = 963 */
(PID.TID 0000.0001)                -9.637126199999802E+02,      /* K = 964 */
(PID.TID 0000.0001)                -9.647133599999802E+02,      /* K = 965 */
(PID.TID 0000.0001)                -9.657140999999801E+02,      /* K = 966 */
(PID.TID 0000.0001)                -9.667148399999801E+02,      /* K = 967 */
(PID.TID 0000.0001)                -9.677155799999800E+02,      /* K = 968 */
(PID.TID 0000.0001)                -9.687163199999800E+02,      /* K = 969 */
(PID.TID 0000.0001)                -9.697170599999799E+02,      /* K = 970 */
(PID.TID 0000.0001)                -9.707177999999799E+02,      /* K = 971 */
(PID.TID 0000.0001)                -9.717185399999798E+02,      /* K = 972 */
(PID.TID 0000.0001)                -9.727192799999798E+02,      /* K = 973 */
(PID.TID 0000.0001)                -9.737200199999797E+02,      /* K = 974 */
(PID.TID 0000.0001)                -9.747207599999797E+02,      /* K = 975 */
(PID.TID 0000.0001)                -9.757214999999796E+02,      /* K = 976 */
(PID.TID 0000.0001)                -9.767222399999796E+02,      /* K = 977 */
(PID.TID 0000.0001)                -9.777229799999795E+02,      /* K = 978 */
(PID.TID 0000.0001)                -9.787237199999795E+02,      /* K = 979 */
(PID.TID 0000.0001)                -9.797244599999794E+02,      /* K = 980 */
(PID.TID 0000.0001)                -9.807251999999794E+02,      /* K = 981 */
(PID.TID 0000.0001)                -9.817259399999793E+02,      /* K = 982 */
(PID.TID 0000.0001)                -9.827266799999793E+02,      /* K = 983 */
(PID.TID 0000.0001)                -9.837274199999792E+02,      /* K = 984 */
(PID.TID 0000.0001)                -9.847281599999792E+02,      /* K = 985 */
(PID.TID 0000.0001)                -9.857288999999791E+02,      /* K = 986 */
(PID.TID 0000.0001)                -9.867296399999791E+02,      /* K = 987 */
(PID.TID 0000.0001)                -9.877303799999790E+02,      /* K = 988 */
(PID.TID 0000.0001)                -9.887311199999790E+02,      /* K = 989 */
(PID.TID 0000.0001)                -9.897318599999790E+02,      /* K = 990 */
(PID.TID 0000.0001)                -9.907325999999789E+02,      /* K = 991 */
(PID.TID 0000.0001)                -9.917333399999789E+02,      /* K = 992 */
(PID.TID 0000.0001)                -9.927340799999788E+02,      /* K = 993 */
(PID.TID 0000.0001)                -9.937348199999788E+02,      /* K = 994 */
(PID.TID 0000.0001)                -9.947355599999787E+02,      /* K = 995 */
(PID.TID 0000.0001)                -9.957362999999787E+02,      /* K = 996 */
(PID.TID 0000.0001)                -9.967370399999786E+02,      /* K = 997 */
(PID.TID 0000.0001)                -9.977377799999786E+02,      /* K = 998 */
(PID.TID 0000.0001)                -9.987385199999785E+02,      /* K = 999 */
(PID.TID 0000.0001)                -9.997392599999785E+02,      /* K =1000 */
(PID.TID 0000.0001)                -1.000739999999978E+03,      /* K =1001 */
(PID.TID 0000.0001)                -1.001740739999978E+03,      /* K =1002 */
(PID.TID 0000.0001)                -1.002741479999978E+03,      /* K =1003 */
(PID.TID 0000.0001)                -1.003742219999978E+03,      /* K =1004 */
(PID.TID 0000.0001)                -1.004742959999978E+03,      /* K =1005 */
(PID.TID 0000.0001)                -1.005743699999978E+03,      /* K =1006 */
(PID.TID 0000.0001)                -1.006744439999978E+03,      /* K =1007 */
(PID.TID 0000.0001)                -1.007745179999978E+03,      /* K =1008 */
(PID.TID 0000.0001)                -1.008745919999978E+03,      /* K =1009 */
(PID.TID 0000.0001)                -1.009746659999978E+03,      /* K =1010 */
(PID.TID 0000.0001)                -1.010747399999978E+03,      /* K =1011 */
(PID.TID 0000.0001)                -1.011748139999978E+03,      /* K =1012 */
(PID.TID 0000.0001)                -1.012748879999978E+03,      /* K =1013 */
(PID.TID 0000.0001)                -1.013749619999978E+03,      /* K =1014 */
(PID.TID 0000.0001)                -1.014750359999978E+03,      /* K =1015 */
(PID.TID 0000.0001)                -1.015751099999978E+03,      /* K =1016 */
(PID.TID 0000.0001)                -1.016751839999978E+03,      /* K =1017 */
(PID.TID 0000.0001)                -1.017752579999978E+03,      /* K =1018 */
(PID.TID 0000.0001)                -1.018753319999978E+03,      /* K =1019 */
(PID.TID 0000.0001)                -1.019754059999977E+03,      /* K =1020 */
(PID.TID 0000.0001)                -1.020754799999977E+03,      /* K =1021 */
(PID.TID 0000.0001)                -1.021755539999977E+03,      /* K =1022 */
(PID.TID 0000.0001)                -1.022756279999977E+03,      /* K =1023 */
(PID.TID 0000.0001)                -1.023757019999977E+03,      /* K =1024 */
(PID.TID 0000.0001)                -1.024757759999977E+03,      /* K =1025 */
(PID.TID 0000.0001)                -1.025758499999977E+03,      /* K =1026 */
(PID.TID 0000.0001)                -1.026759239999977E+03,      /* K =1027 */
(PID.TID 0000.0001)                -1.027759979999977E+03,      /* K =1028 */
(PID.TID 0000.0001)                -1.028760719999977E+03,      /* K =1029 */
(PID.TID 0000.0001)                -1.029761459999977E+03,      /* K =1030 */
(PID.TID 0000.0001)                -1.030762199999977E+03,      /* K =1031 */
(PID.TID 0000.0001)                -1.031762939999977E+03,      /* K =1032 */
(PID.TID 0000.0001)                -1.032763679999977E+03,      /* K =1033 */
(PID.TID 0000.0001)                -1.033764419999977E+03,      /* K =1034 */
(PID.TID 0000.0001)                -1.034765159999977E+03,      /* K =1035 */
(PID.TID 0000.0001)                -1.035765899999977E+03,      /* K =1036 */
(PID.TID 0000.0001)                -1.036766639999977E+03,      /* K =1037 */
(PID.TID 0000.0001)                -1.037767379999977E+03,      /* K =1038 */
(PID.TID 0000.0001)                -1.038768119999977E+03,      /* K =1039 */
(PID.TID 0000.0001)                -1.039768859999976E+03,      /* K =1040 */
(PID.TID 0000.0001)                -1.040769599999976E+03,      /* K =1041 */
(PID.TID 0000.0001)                -1.041770339999976E+03,      /* K =1042 */
(PID.TID 0000.0001)                -1.042771079999976E+03,      /* K =1043 */
(PID.TID 0000.0001)                -1.043771819999976E+03,      /* K =1044 */
(PID.TID 0000.0001)                -1.044772559999976E+03,      /* K =1045 */
(PID.TID 0000.0001)                -1.045773299999976E+03,      /* K =1046 */
(PID.TID 0000.0001)                -1.046774039999976E+03,      /* K =1047 */
(PID.TID 0000.0001)                -1.047774779999976E+03,      /* K =1048 */
(PID.TID 0000.0001)                -1.048775519999976E+03,      /* K =1049 */
(PID.TID 0000.0001)                -1.049776259999976E+03,      /* K =1050 */
(PID.TID 0000.0001)                -1.050776999999976E+03,      /* K =1051 */
(PID.TID 0000.0001)                -1.051777739999976E+03,      /* K =1052 */
(PID.TID 0000.0001)                -1.052778479999976E+03,      /* K =1053 */
(PID.TID 0000.0001)                -1.053779219999976E+03,      /* K =1054 */
(PID.TID 0000.0001)                -1.054779959999976E+03,      /* K =1055 */
(PID.TID 0000.0001)                -1.055780699999976E+03,      /* K =1056 */
(PID.TID 0000.0001)                -1.056781439999976E+03,      /* K =1057 */
(PID.TID 0000.0001)                -1.057782179999976E+03,      /* K =1058 */
(PID.TID 0000.0001)                -1.058782919999976E+03,      /* K =1059 */
(PID.TID 0000.0001)                -1.059783659999975E+03,      /* K =1060 */
(PID.TID 0000.0001)                -1.060784399999975E+03,      /* K =1061 */
(PID.TID 0000.0001)                -1.061785139999975E+03,      /* K =1062 */
(PID.TID 0000.0001)                -1.062785879999975E+03,      /* K =1063 */
(PID.TID 0000.0001)                -1.063786619999975E+03,      /* K =1064 */
(PID.TID 0000.0001)                -1.064787359999975E+03,      /* K =1065 */
(PID.TID 0000.0001)                -1.065788099999975E+03,      /* K =1066 */
(PID.TID 0000.0001)                -1.066788839999975E+03,      /* K =1067 */
(PID.TID 0000.0001)                -1.067789579999975E+03,      /* K =1068 */
(PID.TID 0000.0001)                -1.068790319999975E+03,      /* K =1069 */
(PID.TID 0000.0001)                -1.069791059999975E+03,      /* K =1070 */
(PID.TID 0000.0001)                -1.070791799999975E+03,      /* K =1071 */
(PID.TID 0000.0001)                -1.071792539999975E+03,      /* K =1072 */
(PID.TID 0000.0001)                -1.072793279999975E+03,      /* K =1073 */
(PID.TID 0000.0001)                -1.073794019999975E+03,      /* K =1074 */
(PID.TID 0000.0001)                -1.074794759999975E+03,      /* K =1075 */
(PID.TID 0000.0001)                -1.075795499999975E+03,      /* K =1076 */
(PID.TID 0000.0001)                -1.076796239999975E+03,      /* K =1077 */
(PID.TID 0000.0001)                -1.077796979999975E+03,      /* K =1078 */
(PID.TID 0000.0001)                -1.078797719999975E+03,      /* K =1079 */
(PID.TID 0000.0001)                -1.079798459999975E+03,      /* K =1080 */
(PID.TID 0000.0001)                -1.080799199999974E+03,      /* K =1081 */
(PID.TID 0000.0001)                -1.081799939999974E+03,      /* K =1082 */
(PID.TID 0000.0001)                -1.082800679999974E+03,      /* K =1083 */
(PID.TID 0000.0001)                -1.083801419999974E+03,      /* K =1084 */
(PID.TID 0000.0001)                -1.084802159999974E+03,      /* K =1085 */
(PID.TID 0000.0001)                -1.085802899999974E+03,      /* K =1086 */
(PID.TID 0000.0001)                -1.086803639999974E+03,      /* K =1087 */
(PID.TID 0000.0001)                -1.087804379999974E+03,      /* K =1088 */
(PID.TID 0000.0001)                -1.088805119999974E+03,      /* K =1089 */
(PID.TID 0000.0001)                -1.089805859999974E+03,      /* K =1090 */
(PID.TID 0000.0001)                -1.090806599999974E+03,      /* K =1091 */
(PID.TID 0000.0001)                -1.091807339999974E+03,      /* K =1092 */
(PID.TID 0000.0001)                -1.092808079999974E+03,      /* K =1093 */
(PID.TID 0000.0001)                -1.093808819999974E+03,      /* K =1094 */
(PID.TID 0000.0001)                -1.094809559999974E+03,      /* K =1095 */
(PID.TID 0000.0001)                -1.095810299999974E+03,      /* K =1096 */
(PID.TID 0000.0001)                -1.096811039999974E+03,      /* K =1097 */
(PID.TID 0000.0001)                -1.097811779999974E+03,      /* K =1098 */
(PID.TID 0000.0001)                -1.098812519999974E+03,      /* K =1099 */
(PID.TID 0000.0001)                -1.099813259999974E+03,      /* K =1100 */
(PID.TID 0000.0001)                -1.100813999999973E+03,      /* K =1101 */
(PID.TID 0000.0001)                -1.101814739999973E+03,      /* K =1102 */
(PID.TID 0000.0001)                -1.102815479999973E+03,      /* K =1103 */
(PID.TID 0000.0001)                -1.103816219999973E+03,      /* K =1104 */
(PID.TID 0000.0001)                -1.104816959999973E+03,      /* K =1105 */
(PID.TID 0000.0001)                -1.105817699999973E+03,      /* K =1106 */
(PID.TID 0000.0001)                -1.106818439999973E+03,      /* K =1107 */
(PID.TID 0000.0001)                -1.107819179999973E+03,      /* K =1108 */
(PID.TID 0000.0001)                -1.108819919999973E+03,      /* K =1109 */
(PID.TID 0000.0001)                -1.109820659999973E+03,      /* K =1110 */
(PID.TID 0000.0001)                -1.110821399999973E+03,      /* K =1111 */
(PID.TID 0000.0001)                -1.111822139999973E+03,      /* K =1112 */
(PID.TID 0000.0001)                -1.112822879999973E+03,      /* K =1113 */
(PID.TID 0000.0001)                -1.113823619999973E+03,      /* K =1114 */
(PID.TID 0000.0001)                -1.114824359999973E+03,      /* K =1115 */
(PID.TID 0000.0001)                -1.115825099999973E+03,      /* K =1116 */
(PID.TID 0000.0001)                -1.116825839999973E+03,      /* K =1117 */
(PID.TID 0000.0001)                -1.117826579999973E+03       /* K =1118 */
(PID.TID 0000.0001)     ;
(PID.TID 0000.0001) deepFacC = /* deep-model grid factor @ cell-Center (-) */
(PID.TID 0000.0001)  1117 @  1.000000000000000E+00              /* K =   1:1117 */
(PID.TID 0000.0001)     ;
(PID.TID 0000.0001) deepFacF = /* deep-model grid factor @ W-Interface (-) */
(PID.TID 0000.0001)  1118 @  1.000000000000000E+00              /* K =   1:1118 */
(PID.TID 0000.0001)     ;
(PID.TID 0000.0001) rVel2wUnit = /* convert units: rVel -> wSpeed (=1 if z-coord)*/
(PID.TID 0000.0001)  1118 @  1.000000000000000E+00              /* K =   1:1118 */
(PID.TID 0000.0001)     ;
(PID.TID 0000.0001) wUnit2rVel = /* convert units: wSpeed -> rVel (=1 if z-coord)*/
(PID.TID 0000.0001)  1118 @  1.000000000000000E+00              /* K =   1:1118 */
(PID.TID 0000.0001)     ;
(PID.TID 0000.0001) dBdrRef = /* Vertical grad. of reference buoyancy [(m/s/r)^2] */
(PID.TID 0000.0001)  1117 @  0.000000000000000E+00              /* K =   1:1117 */
(PID.TID 0000.0001)     ;
(PID.TID 0000.0001) rotateGrid = /* use rotated grid ( True/False ) */
(PID.TID 0000.0001)                   F
(PID.TID 0000.0001)     ;
(PID.TID 0000.0001) phiEuler = /* Euler angle, rotation about original z-coordinate [rad] */
(PID.TID 0000.0001)                 0.000000000000000E+00
(PID.TID 0000.0001)     ;
(PID.TID 0000.0001) thetaEuler = /* Euler angle, rotation about new x-coordinate [rad] */
(PID.TID 0000.0001)                 0.000000000000000E+00
(PID.TID 0000.0001)     ;
(PID.TID 0000.0001) psiEuler = /* Euler angle, rotation about new z-coordinate [rad] */
(PID.TID 0000.0001)                 0.000000000000000E+00
(PID.TID 0000.0001)     ;
(PID.TID 0000.0001) dxF =  /* dxF(:,1,:,1) ( units: m ) */
(PID.TID 0000.0001)    59 @  1.655535574918485E+02              /* I =  1: 59 */
(PID.TID 0000.0001)     ;
(PID.TID 0000.0001) dxF =  /* dxF(1,:,1,:) ( units: m ) */
(PID.TID 0000.0001)                 1.655535574918485E+02,      /* J =  1 */
(PID.TID 0000.0001)                 1.655077721900239E+02,      /* J =  2 */
(PID.TID 0000.0001)                 1.654634810881221E+02,      /* J =  3 */
(PID.TID 0000.0001)                 1.654206354369219E+02,      /* J =  4 */
(PID.TID 0000.0001)                 1.653791880724521E+02,      /* J =  5 */
(PID.TID 0000.0001)                 1.653390933701725E+02,      /* J =  6 */
(PID.TID 0000.0001)                 1.653003071951445E+02,      /* J =  7 */
(PID.TID 0000.0001)                 1.652627868501887E+02,      /* J =  8 */
(PID.TID 0000.0001)                 1.652264910300339E+02,      /* J =  9 */
(PID.TID 0000.0001)                 1.651913797774556E+02,      /* J = 10 */
(PID.TID 0000.0001)                 1.651574144414048E+02,      /* J = 11 */
(PID.TID 0000.0001)                 1.651245576291297E+02,      /* J = 12 */
(PID.TID 0000.0001)                 1.650927731672886E+02,      /* J = 13 */
(PID.TID 0000.0001)                 1.650620260620557E+02,      /* J = 14 */
(PID.TID 0000.0001)                 1.650322824622187E+02       /* J = 15 */
(PID.TID 0000.0001)     ;
(PID.TID 0000.0001) dyF =  /* dyF(:,1,:,1) ( units: m ) */
(PID.TID 0000.0001)    59 @  3.012576284827794E+02              /* I =  1: 59 */
(PID.TID 0000.0001)     ;
(PID.TID 0000.0001) dyF =  /* dyF(1,:,1,:) ( units: m ) */
(PID.TID 0000.0001)                 3.012576284827794E+02,      /* J =  1 */
(PID.TID 0000.0001)                 2.914238737296444E+02,      /* J =  2 */
(PID.TID 0000.0001)                 2.819110994577459E+02,      /* J =  3 */
(PID.TID 0000.0001)                 2.727088220303984E+02,      /* J =  4 */
(PID.TID 0000.0001)                 2.638069719792792E+02,      /* J =  5 */
(PID.TID 0000.0001)                 2.551956610347245E+02,      /* J =  6 */
(PID.TID 0000.0001)                 2.468654668664786E+02,      /* J =  7 */
(PID.TID 0000.0001)                 2.388071742284672E+02,      /* J =  8 */
(PID.TID 0000.0001)                 2.310119561574564E+02,      /* J =  9 */
(PID.TID 0000.0001)                 2.234711668888709E+02,      /* J = 10 */
(PID.TID 0000.0001)                 2.161765230554530E+02,      /* J = 11 */
(PID.TID 0000.0001)                 2.091200001451718E+02,      /* J = 12 */
(PID.TID 0000.0001)                 2.022938195584618E+02,      /* J = 13 */
(PID.TID 0000.0001)                 1.956904744937458E+02,      /* J = 14 */
(PID.TID 0000.0001)                 1.893026652336278E+02       /* J = 15 */
(PID.TID 0000.0001)     ;
(PID.TID 0000.0001) dxG =  /* dxG(:,1,:,1) ( units: m ) */
(PID.TID 0000.0001)    59 @  1.655768298396387E+02              /* I =  1: 59 */
(PID.TID 0000.0001)     ;
(PID.TID 0000.0001) dxG =  /* dxG(1,:,1,:) ( units: m ) */
(PID.TID 0000.0001)                 1.655768298396387E+02,      /* J =  1 */
(PID.TID 0000.0001)                 1.655302850514870E+02,      /* J =  2 */
(PID.TID 0000.0001)                 1.654852592419583E+02,      /* J =  3 */
(PID.TID 0000.0001)                 1.654417028532666E+02,      /* J =  4 */
(PID.TID 0000.0001)                 1.653995679447804E+02,      /* J =  5 */
(PID.TID 0000.0001)                 1.653588081292123E+02,      /* J =  6 */
(PID.TID 0000.0001)                 1.653193785447916E+02,      /* J =  7 */
(PID.TID 0000.0001)                 1.652812357834310E+02,      /* J =  8 */
(PID.TID 0000.0001)                 1.652443378588789E+02,      /* J =  9 */
(PID.TID 0000.0001)                 1.652086441468626E+02,      /* J = 10 */
(PID.TID 0000.0001)                 1.651741153572219E+02,      /* J = 11 */
(PID.TID 0000.0001)                 1.651407134780348E+02,      /* J = 12 */
(PID.TID 0000.0001)                 1.651084017357345E+02,      /* J = 13 */
(PID.TID 0000.0001)                 1.650771445572180E+02,      /* J = 14 */
(PID.TID 0000.0001)                 1.650469075279488E+02       /* J = 15 */
(PID.TID 0000.0001)     ;
(PID.TID 0000.0001) dyG =  /* dyG(:,1,:,1) ( units: m ) */
(PID.TID 0000.0001)    59 @  3.012576284827794E+02              /* I =  1: 59 */
(PID.TID 0000.0001)     ;
(PID.TID 0000.0001) dyG =  /* dyG(1,:,1,:) ( units: m ) */
(PID.TID 0000.0001)                 3.012576284827794E+02,      /* J =  1 */
(PID.TID 0000.0001)                 2.914238737296444E+02,      /* J =  2 */
(PID.TID 0000.0001)                 2.819110994577459E+02,      /* J =  3 */
(PID.TID 0000.0001)                 2.727088220303984E+02,      /* J =  4 */
(PID.TID 0000.0001)                 2.638069719792792E+02,      /* J =  5 */
(PID.TID 0000.0001)                 2.551956610347245E+02,      /* J =  6 */
(PID.TID 0000.0001)                 2.468654668664786E+02,      /* J =  7 */
(PID.TID 0000.0001)                 2.388071742284672E+02,      /* J =  8 */
(PID.TID 0000.0001)                 2.310119561574564E+02,      /* J =  9 */
(PID.TID 0000.0001)                 2.234711668888709E+02,      /* J = 10 */
(PID.TID 0000.0001)                 2.161765230554530E+02,      /* J = 11 */
(PID.TID 0000.0001)                 2.091200001451718E+02,      /* J = 12 */
(PID.TID 0000.0001)                 2.022938195584618E+02,      /* J = 13 */
(PID.TID 0000.0001)                 1.956904744937458E+02,      /* J = 14 */
(PID.TID 0000.0001)                 1.893026652336278E+02       /* J = 15 */
(PID.TID 0000.0001)     ;
(PID.TID 0000.0001) dxC =  /* dxC(:,1,:,1) ( units: m ) */
(PID.TID 0000.0001)                 9.105445683521755E+01,      /* I =  1 */
(PID.TID 0000.0001)    58 @  1.655535574918485E+02              /* I =  2: 59 */
(PID.TID 0000.0001)     ;
(PID.TID 0000.0001) dxC =  /* dxC(1,:,1,:) ( units: m ) */
(PID.TID 0000.0001)                 9.105445683521755E+01,      /* J =  1 */
(PID.TID 0000.0001)                 9.102927491915464E+01,      /* J =  2 */
(PID.TID 0000.0001)                 9.100491481305120E+01,      /* J =  3 */
(PID.TID 0000.0001)                 9.098134970483557E+01,      /* J =  4 */
(PID.TID 0000.0001)                 9.095855365432340E+01,      /* J =  5 */
(PID.TID 0000.0001)                 9.093650156801766E+01,      /* J =  6 */
(PID.TID 0000.0001)                 9.091516917170193E+01,      /* J =  7 */
(PID.TID 0000.0001)                 9.089453298192760E+01,      /* J =  8 */
(PID.TID 0000.0001)                 9.087457028079535E+01,      /* J =  9 */
(PID.TID 0000.0001)                 9.085525909183175E+01,      /* J = 10 */
(PID.TID 0000.0001)                 9.083657815695980E+01,      /* J = 11 */
(PID.TID 0000.0001)                 9.081850691016587E+01,      /* J = 12 */
(PID.TID 0000.0001)                 9.080102545611207E+01,      /* J = 13 */
(PID.TID 0000.0001)                 9.078411454819408E+01,      /* J = 14 */
(PID.TID 0000.0001)                 9.076775556824518E+01       /* J = 15 */
(PID.TID 0000.0001)     ;
(PID.TID 0000.0001) dyC =  /* dyC(:,1,:,1) ( units: m ) */
(PID.TID 0000.0001)    59 @  2.005289381507338E+02              /* I =  1: 59 */
(PID.TID 0000.0001)     ;
(PID.TID 0000.0001) dyC =  /* dyC(1,:,1,:) ( units: m ) */
(PID.TID 0000.0001)                 2.005289381507338E+02,      /* J =  1 */
(PID.TID 0000.0001)                 2.963407511062119E+02,      /* J =  2 */
(PID.TID 0000.0001)                 2.866674865936951E+02,      /* J =  3 */
(PID.TID 0000.0001)                 2.773099607440722E+02,      /* J =  4 */
(PID.TID 0000.0001)                 2.682578970048388E+02,      /* J =  5 */
(PID.TID 0000.0001)                 2.595013165070019E+02,      /* J =  6 */
(PID.TID 0000.0001)                 2.510305639506016E+02,      /* J =  7 */
(PID.TID 0000.0001)                 2.428363205474729E+02,      /* J =  8 */
(PID.TID 0000.0001)                 2.349095651929618E+02,      /* J =  9 */
(PID.TID 0000.0001)                 2.272415615231637E+02,      /* J = 10 */
(PID.TID 0000.0001)                 2.198238449721620E+02,      /* J = 11 */
(PID.TID 0000.0001)                 2.126482616003124E+02,      /* J = 12 */
(PID.TID 0000.0001)                 2.057069098518168E+02,      /* J = 13 */
(PID.TID 0000.0001)                 1.989921470261038E+02,      /* J = 14 */
(PID.TID 0000.0001)                 1.924965698636868E+02       /* J = 15 */
(PID.TID 0000.0001)     ;
(PID.TID 0000.0001) dxV =  /* dxV(:,1,:,1) ( units: m ) */
(PID.TID 0000.0001)                 9.106725662653236E+01,      /* I =  1 */
(PID.TID 0000.0001)    58 @  1.655768298396387E+02              /* I =  2: 59 */
(PID.TID 0000.0001)     ;
(PID.TID 0000.0001) dxV =  /* dxV(1,:,1,:) ( units: m ) */
(PID.TID 0000.0001)                 9.106725662653236E+01,      /* J =  1 */
(PID.TID 0000.0001)                 9.104165699298856E+01,      /* J =  2 */
(PID.TID 0000.0001)                 9.101689279768939E+01,      /* J =  3 */
(PID.TID 0000.0001)                 9.099293678385249E+01,      /* J =  4 */
(PID.TID 0000.0001)                 9.096976258413042E+01,      /* J =  5 */
(PID.TID 0000.0001)                 9.094734468551509E+01,      /* J =  6 */
(PID.TID 0000.0001)                 9.092565841403258E+01,      /* J =  7 */
(PID.TID 0000.0001)                 9.090467989523481E+01,      /* J =  8 */
(PID.TID 0000.0001)                 9.088438603668328E+01,      /* J =  9 */
(PID.TID 0000.0001)                 9.086475449502800E+01,      /* J = 10 */
(PID.TID 0000.0001)                 9.084576366068083E+01,      /* J = 11 */
(PID.TID 0000.0001)                 9.082739262708461E+01,      /* J = 12 */
(PID.TID 0000.0001)                 9.080962116877757E+01,      /* J = 13 */
(PID.TID 0000.0001)                 9.079242972055293E+01,      /* J = 14 */
(PID.TID 0000.0001)                 9.077579935441570E+01       /* J = 15 */
(PID.TID 0000.0001)     ;
(PID.TID 0000.0001) dyU =  /* dyU(:,1,:,1) ( units: m ) */
(PID.TID 0000.0001)    59 @  2.005289381507338E+02              /* I =  1: 59 */
(PID.TID 0000.0001)     ;
(PID.TID 0000.0001) dyU =  /* dyU(1,:,1,:) ( units: m ) */
(PID.TID 0000.0001)                 2.005289381507338E+02,      /* J =  1 */
(PID.TID 0000.0001)                 2.963407511062119E+02,      /* J =  2 */
(PID.TID 0000.0001)                 2.866674865936951E+02,      /* J =  3 */
(PID.TID 0000.0001)                 2.773099607440722E+02,      /* J =  4 */
(PID.TID 0000.0001)                 2.682578970048388E+02,      /* J =  5 */
(PID.TID 0000.0001)                 2.595013165070019E+02,      /* J =  6 */
(PID.TID 0000.0001)                 2.510305639506016E+02,      /* J =  7 */
(PID.TID 0000.0001)                 2.428363205474729E+02,      /* J =  8 */
(PID.TID 0000.0001)                 2.349095651929618E+02,      /* J =  9 */
(PID.TID 0000.0001)                 2.272415615231637E+02,      /* J = 10 */
(PID.TID 0000.0001)                 2.198238449721620E+02,      /* J = 11 */
(PID.TID 0000.0001)                 2.126482616003124E+02,      /* J = 12 */
(PID.TID 0000.0001)                 2.057069098518168E+02,      /* J = 13 */
(PID.TID 0000.0001)                 1.989921470261038E+02,      /* J = 14 */
(PID.TID 0000.0001)                 1.924965698636868E+02       /* J = 15 */
(PID.TID 0000.0001)     ;
(PID.TID 0000.0001) rA  =  /* rA (:,1,:,1) ( units: m^2 ) */
(PID.TID 0000.0001)    59 @  4.987427211217474E+04              /* I =  1: 59 */
(PID.TID 0000.0001)     ;
(PID.TID 0000.0001) rA  =  /* rA (1,:,1,:) ( units: m^2 ) */
(PID.TID 0000.0001)                 4.987427211217474E+04,      /* J =  1 */
(PID.TID 0000.0001)                 4.823291610008042E+04,      /* J =  2 */
(PID.TID 0000.0001)                 4.664599186951309E+04,      /* J =  3 */
(PID.TID 0000.0001)                 4.511166662605974E+04,      /* J =  4 */
(PID.TID 0000.0001)                 4.362818283116589E+04,      /* J =  5 */
(PID.TID 0000.0001)                 4.219381922436504E+04,      /* J =  6 */
(PID.TID 0000.0001)                 4.080693750626105E+04,      /* J =  7 */
(PID.TID 0000.0001)                 3.946593913090187E+04,      /* J =  8 */
(PID.TID 0000.0001)                 3.816929489924163E+04,      /* J =  9 */
(PID.TID 0000.0001)                 3.691551039755675E+04,      /* J = 10 */
(PID.TID 0000.0001)                 3.570315560855299E+04,      /* J = 11 */
(PID.TID 0000.0001)                 3.453084751411661E+04,      /* J = 12 */
(PID.TID 0000.0001)                 3.339724766383554E+04,      /* J = 13 */
(PID.TID 0000.0001)                 3.230106619946739E+04,      /* J = 14 */
(PID.TID 0000.0001)                 3.124105091857813E+04       /* J = 15 */
(PID.TID 0000.0001)     ;
(PID.TID 0000.0001) rAw =  /* rAw(:,1,:,1) ( units: m^2 ) */
(PID.TID 0000.0001)                 2.743084972637639E+04,      /* I =  1 */
(PID.TID 0000.0001)    58 @  4.987427211217474E+04              /* I =  2: 59 */
(PID.TID 0000.0001)     ;
(PID.TID 0000.0001) rAw =  /* rAw(1,:,1,:) ( units: m^2 ) */
(PID.TID 0000.0001)                 2.743084972637639E+04,      /* J =  1 */
(PID.TID 0000.0001)                 2.652810391759589E+04,      /* J =  2 */
(PID.TID 0000.0001)                 2.565529558872583E+04,      /* J =  3 */
(PID.TID 0000.0001)                 2.481141670283668E+04,      /* J =  4 */
(PID.TID 0000.0001)                 2.399550061372117E+04,      /* J =  5 */
(PID.TID 0000.0001)                 2.320660062812053E+04,      /* J =  6 */
(PID.TID 0000.0001)                 2.244381568136473E+04,      /* J =  7 */
(PID.TID 0000.0001)                 2.170626657317809E+04,      /* J =  8 */
(PID.TID 0000.0001)                 2.099311224408338E+04,      /* J =  9 */
(PID.TID 0000.0001)                 2.030353076653070E+04,      /* J = 10 */
(PID.TID 0000.0001)                 1.963673563100638E+04,      /* J = 11 */
(PID.TID 0000.0001)                 1.899196617754604E+04,      /* J = 12 */
(PID.TID 0000.0001)                 1.836848625842133E+04,      /* J = 13 */
(PID.TID 0000.0001)                 1.776558645159724E+04,      /* J = 14 */
(PID.TID 0000.0001)                 1.718257804573345E+04       /* J = 15 */
(PID.TID 0000.0001)     ;
(PID.TID 0000.0001) rAs =  /* rAs(:,1,:,1) ( units: m^2 ) */
(PID.TID 0000.0001)    59 @  3.320138548321280E+04              /* I =  1: 59 */
(PID.TID 0000.0001)     ;
(PID.TID 0000.0001) rAs =  /* rAs(1,:,1,:) ( units: m^2 ) */
(PID.TID 0000.0001)                 3.320138548321280E+04,      /* J =  1 */
(PID.TID 0000.0001)                 4.905348155900605E+04,      /* J =  2 */
(PID.TID 0000.0001)                 4.743934866435504E+04,      /* J =  3 */
(PID.TID 0000.0001)                 4.587873068890273E+04,      /* J =  4 */
(PID.TID 0000.0001)                 4.436983249898504E+04,      /* J =  5 */
(PID.TID 0000.0001)                 4.291091471979446E+04,      /* J =  6 */
(PID.TID 0000.0001)                 4.150029759892585E+04,      /* J =  7 */
(PID.TID 0000.0001)                 4.013636273840808E+04,      /* J =  8 */
(PID.TID 0000.0001)                 3.881754628868069E+04,      /* J =  9 */
(PID.TID 0000.0001)                 3.754233646276842E+04,      /* J = 10 */
(PID.TID 0000.0001)                 3.630927106668925E+04,      /* J = 11 */
(PID.TID 0000.0001)                 3.511694360250157E+04,      /* J = 12 */
(PID.TID 0000.0001)                 3.396399335182297E+04,      /* J = 13 */
(PID.TID 0000.0001)                 3.284910617761828E+04,      /* J = 14 */
(PID.TID 0000.0001)                 3.177101106366530E+04       /* J = 15 */
(PID.TID 0000.0001)     ;
(PID.TID 0000.0001) globalArea = /* Integrated horizontal Area (m^2) */
(PID.TID 0000.0001)                 2.769225821370827E+08
(PID.TID 0000.0001)     ;
(PID.TID 0000.0001) // =======================================================
(PID.TID 0000.0001) // End of Model config. summary
(PID.TID 0000.0001) // =======================================================
(PID.TID 0000.0001) 
(PID.TID 0000.0001) == Packages configuration : Check & print summary ==
(PID.TID 0000.0001) 
(PID.TID 0000.0001) OBCS_CHECK: #define ALLOW_OBCS
(PID.TID 0000.0001) OBCS_CHECK: start summary:
(PID.TID 0000.0001) useOBCSprescribe = /* prescribe OB values */
(PID.TID 0000.0001)                   T
(PID.TID 0000.0001)     ;
(PID.TID 0000.0001) useOBCSbalance = /* balance the flow through OB */
(PID.TID 0000.0001)                   T
(PID.TID 0000.0001)     ;
(PID.TID 0000.0001) OBCSbalanceSurf = /* include surf. flux in balance */
(PID.TID 0000.0001)                   F
(PID.TID 0000.0001)     ;
(PID.TID 0000.0001) OBCS_balanceFacN = /* Northern OB Factor for balancing OB flow [-] */
(PID.TID 0000.0001)                 1.000000000000000E+00
(PID.TID 0000.0001)     ;
(PID.TID 0000.0001) OBCS_balanceFacS = /* Southern OB Factor for balancing OB flow [-] */
(PID.TID 0000.0001)                 1.000000000000000E+00
(PID.TID 0000.0001)     ;
(PID.TID 0000.0001) OBCS_balanceFacE = /* Eastern  OB Factor for balancing OB flow [-] */
(PID.TID 0000.0001)                 1.000000000000000E+00
(PID.TID 0000.0001)     ;
(PID.TID 0000.0001) OBCS_balanceFacW = /* Western  OB Factor for balancing OB flow [-] */
(PID.TID 0000.0001)                 1.000000000000000E+00
(PID.TID 0000.0001)     ;
(PID.TID 0000.0001) OBCS_uvApplyFac = /* Factor to apply to U,V 2nd column/row */
(PID.TID 0000.0001)                 1.000000000000000E+00
(PID.TID 0000.0001)     ;
(PID.TID 0000.0001) OBCS_u1_adv_T = /* Temp uses upwind adv-scheme @ OB */
(PID.TID 0000.0001)                       1
(PID.TID 0000.0001)     ;
(PID.TID 0000.0001) OBCS_u1_adv_S = /* Salt uses upwind adv-scheme @ OB */
(PID.TID 0000.0001)                       1
(PID.TID 0000.0001)     ;
(PID.TID 0000.0001) OBCS_monitorFreq = /* monitor output frequency [s] */
(PID.TID 0000.0001)                 4.000000000000000E+00
(PID.TID 0000.0001)     ;
(PID.TID 0000.0001) OBCS_monSelect = /* select group of variables to monitor */
(PID.TID 0000.0001)                       0
(PID.TID 0000.0001)     ;
(PID.TID 0000.0001) useOBCStides = /* apply tidal forcing through OB */
(PID.TID 0000.0001)                   F
(PID.TID 0000.0001)     ;
(PID.TID 0000.0001) tidalPeriod = /* (s) */
(PID.TID 0000.0001)    10 @  0.000000000000000E+00              /* I =  1: 10 */
(PID.TID 0000.0001)     ;
(PID.TID 0000.0001) OB_indexNone = /* null value for OB index (i.e. no OB) */
(PID.TID 0000.0001)                     -99
(PID.TID 0000.0001)     ;
(PID.TID 0000.0001) ======== Tile bi=   1 , bj=   1 ========
(PID.TID 0000.0001)  OB_Jn = /* Northern OB local indices */
(PID.TID 0000.0001)    65 @      -99                            /* I = -2: 62 */
(PID.TID 0000.0001)  OB_Js = /* Southern OB local indices */
(PID.TID 0000.0001)    65 @      -99                            /* I = -2: 62 */
(PID.TID 0000.0001)  OB_Ie = /* Eastern OB local indices */
(PID.TID 0000.0001)    21 @      -99                            /* J = -2: 18 */
(PID.TID 0000.0001)  OB_Iw = /* Western OB local indices */
(PID.TID 0000.0001)    21 @      -99                            /* J = -2: 18 */
(PID.TID 0000.0001) OBCS_CHECK: end summary.
(PID.TID 0000.0001) OBCS_CHECK: set-up OK
(PID.TID 0000.0001) OBCS_CHECK: check Inside Mask and OB locations: OK
(PID.TID 0000.0001) SHELFICE_CHECK: #define ALLOW_SHELFICE
(PID.TID 0000.0001) 
(PID.TID 0000.0001) SHELFICE_CHECK: start of SHELFICE config. summary
(PID.TID 0000.0001) SHELFICEisOn = /* package is turned on */
(PID.TID 0000.0001)                   T
(PID.TID 0000.0001)     ;
(PID.TID 0000.0001) useISOMIPTD = /* use simple isomip thermodynamics */
(PID.TID 0000.0001)                   F
(PID.TID 0000.0001)     ;
(PID.TID 0000.0001) SHELFICEconserve = /* use a conservative form of boundary conditions */
(PID.TID 0000.0001)                   T
(PID.TID 0000.0001)     ;
(PID.TID 0000.0001) SHELFICEboundaryLayer = /* use simple boundary layer scheme to suppress noise */
(PID.TID 0000.0001)                   F
(PID.TID 0000.0001)     ;
(PID.TID 0000.0001) SHELFICEadvDiffHeatFlux = /* use adv.-diff. instead of just diff. heat flux into the ice shelf */
(PID.TID 0000.0001)                   F
(PID.TID 0000.0001)     ;
(PID.TID 0000.0001) SHELFICEMassStepping = /* step forward ice shelf mass/thickness */
(PID.TID 0000.0001)                   F
(PID.TID 0000.0001)     ;
(PID.TID 0000.0001) no_slip_shelfice = /* use no slip boundary conditions */
(PID.TID 0000.0001)                   F
(PID.TID 0000.0001)     ;
(PID.TID 0000.0001) SHELFICEdragLinear    = /* linear drag coefficient */
(PID.TID 0000.0001)                 0.000000000000000E+00
(PID.TID 0000.0001)     ;
(PID.TID 0000.0001) SHELFICEdragQuadratic = /* quadratic drag coefficient */
(PID.TID 0000.0001)                 1.500000000000000E-03
(PID.TID 0000.0001)     ;
(PID.TID 0000.0001) SHELFICEselectDragQuadr = /* select quadratic drag option */
(PID.TID 0000.0001)                       2
(PID.TID 0000.0001)     ;
(PID.TID 0000.0001) SHELFICElatentHeat      = /* latent heat of ice */
(PID.TID 0000.0001)                 3.340000000000000E+05
(PID.TID 0000.0001)     ;
(PID.TID 0000.0001) SHELFICEheatCapacity_Cp = /* heat capacity of ice shelf */
(PID.TID 0000.0001)                 2.000000000000000E+03
(PID.TID 0000.0001)     ;
(PID.TID 0000.0001) rhoShelfice   = /* density of ice shelf */
(PID.TID 0000.0001)                 9.170000000000000E+02
(PID.TID 0000.0001)     ;
(PID.TID 0000.0001) SHELFICEkappa = /* thermal conductivity of ice shelf */
(PID.TID 0000.0001)                 1.540000000000000E-06
(PID.TID 0000.0001)     ;
(PID.TID 0000.0001) SHELFICEthetaSurface = /* surface temperature above i.s. */
(PID.TID 0000.0001)                -2.000000000000000E+01
(PID.TID 0000.0001)     ;
(PID.TID 0000.0001) SHELFICEheatTransCoeff = /* heat transfer coefficient */
(PID.TID 0000.0001)                 1.000000000000000E-04
(PID.TID 0000.0001)     ;
(PID.TID 0000.0001) SHELFICEsaltTransCoeff = /* salt transfer coefficient */
(PID.TID 0000.0001)                 5.050000000000000E-07
(PID.TID 0000.0001)     ;
(PID.TID 0000.0001) SHELFICEuseGammaFrict = /* use velocity dependent exchange coefficients */
(PID.TID 0000.0001)                   T
(PID.TID 0000.0001)     ;
(PID.TID 0000.0001) SHELFICE_oldCalcUStar = /* use old uStar expression */
(PID.TID 0000.0001)                   F
(PID.TID 0000.0001)     ;
(PID.TID 0000.0001) shiCdrag   = /* quadr. drag coefficient for uStar */
(PID.TID 0000.0001)                 1.500000000000000E-03
(PID.TID 0000.0001)     ;
(PID.TID 0000.0001) shiZetaN   = /* parameter for gammaTurb */
(PID.TID 0000.0001)                 5.200000000000000E-02
(PID.TID 0000.0001)     ;
(PID.TID 0000.0001) shiRc      = /* parameter for gammaTurb (not used) */
(PID.TID 0000.0001)                 2.000000000000000E-01
(PID.TID 0000.0001)     ;
(PID.TID 0000.0001) shiPrandtl = /* const. Prandtl No. for gammaTurb */
(PID.TID 0000.0001)                 1.380000000000000E+01
(PID.TID 0000.0001)     ;
(PID.TID 0000.0001) shiSchmidt = /* const. Schmidt No. for gammaTurb */
(PID.TID 0000.0001)                 2.432000000000000E+03
(PID.TID 0000.0001)     ;
(PID.TID 0000.0001) shiKinVisc = /* const. kin. viscosity for gammaTurb */
(PID.TID 0000.0001)                 1.950000000000000E-06
(PID.TID 0000.0001)     ;
(PID.TID 0000.0001) SHELFICEremeshFrequency = /* Frequency (in s) of Remeshing */
(PID.TID 0000.0001)                 8.000000000000000E+00
(PID.TID 0000.0001)     ;
(PID.TID 0000.0001) SHELFICEsplitThreshold = /* hFac remesh threshold above which cell splits */
(PID.TID 0000.0001)                 1.120000000000000E+00
(PID.TID 0000.0001)     ;
(PID.TID 0000.0001) SHELFICEmergeThreshold = /* hFac remesh threshold below which cell merges */
(PID.TID 0000.0001)                 1.000000000000000E-01
(PID.TID 0000.0001)     ;
(PID.TID 0000.0001) SHELFICEloadAnomalyFile = /* file name of loaded loadAnomaly field */
(PID.TID 0000.0001)               ''
(PID.TID 0000.0001)     ;
(PID.TID 0000.0001) SHELFICEmassFile = /* file name of loaded mass field */
(PID.TID 0000.0001)               ''
(PID.TID 0000.0001)     ;
(PID.TID 0000.0001) SHELFICEtopoFile = /* file name of loaded under-ice topography */
(PID.TID 0000.0001)               'shelficeTopo.Lin.bin'
(PID.TID 0000.0001)     ;
(PID.TID 0000.0001) SHELFICEMassDynTendFile = /* file name of loaded dynamic mass tendency field */
(PID.TID 0000.0001)               ''
(PID.TID 0000.0001)     ;
(PID.TID 0000.0001) SHELFICEwriteState  = /* do simple standard output */
(PID.TID 0000.0001)                   T
(PID.TID 0000.0001)     ;
(PID.TID 0000.0001) SHELFICE_dump_mdsio = /* use mdsio for snapshots */
(PID.TID 0000.0001)                   T
(PID.TID 0000.0001)     ;
(PID.TID 0000.0001) SHELFICE_tave_mdsio = /* use mdsio for time averages */
(PID.TID 0000.0001)                   T
(PID.TID 0000.0001)     ;
(PID.TID 0000.0001) SHELFICE_dump_mnc   = /* use netcdf for snapshots */
(PID.TID 0000.0001)                   F
(PID.TID 0000.0001)     ;
(PID.TID 0000.0001) SHELFICE_tave_mnc   = /* use netcdf for time averages */
(PID.TID 0000.0001)                   F
(PID.TID 0000.0001)     ;
(PID.TID 0000.0001) SHELFICE_dumpFreq = /* analoguous to dumpFreq */
(PID.TID 0000.0001)                 4.000000000000000E+00
(PID.TID 0000.0001)     ;
(PID.TID 0000.0001) SHELFICE_taveFreq = /* analoguous to taveFreq */
(PID.TID 0000.0001)                 0.000000000000000E+00
(PID.TID 0000.0001)     ;
(PID.TID 0000.0001) SHELFICE_CHECK: end of SHELFICE config. summary
(PID.TID 0000.0001) GAD_CHECK: #define ALLOW_GENERIC_ADVDIFF
(PID.TID 0000.0001) // =======================================================
(PID.TID 0000.0001) // Check Model config. (CONFIG_CHECK):
(PID.TID 0000.0001) // CONFIG_CHECK : Normal End
(PID.TID 0000.0001) // =======================================================
(PID.TID 0000.0001) 
(PID.TID 0000.0001)  nRecords =6705 ; filePrec =  64 ; fileIter =    756000
(PID.TID 0000.0001)     nDims =   2 , dims:
(PID.TID 0000.0001)    1: 944   1 944
(PID.TID 0000.0001)    2: 240   1 240
(PID.TID 0000.0001)     nFlds =   9 , nFl3D =   6 , fields:
(PID.TID 0000.0001)  >Uvel    < >Vvel    < >Theta   < >Salt    < >GuNm1   < >GvNm1   < >EtaN    < >dEtaHdt < >EtaH    <
(PID.TID 0000.0001) missingVal=  1.00000000000000E+00 ; nTimRec =   1 , timeList:
(PID.TID 0000.0001)   3.024000000000E+06
(PID.TID 0000.0001) READ_MFLDS_3D_RL: read field: "Uvel    ", #   1 in fldList, rec=   1
(PID.TID 0000.0001) READ_MFLDS_3D_RL: read field: "Vvel    ", #   2 in fldList, rec=   2
(PID.TID 0000.0001) READ_MFLDS_3D_RL: read field: "Theta   ", #   3 in fldList, rec=   3
(PID.TID 0000.0001) READ_MFLDS_3D_RL: read field: "Salt    ", #   4 in fldList, rec=   4
(PID.TID 0000.0001) READ_MFLDS_3D_RL: read field: "GuNm1   ", #   5 in fldList, rec=   5
(PID.TID 0000.0001) READ_MFLDS_3D_RL: read field: "GvNm1   ", #   6 in fldList, rec=   6
(PID.TID 0000.0001) READ_MFLDS_3D_RL: read field: "EtaN    ", #   7 in fldList, rec=6703
(PID.TID 0000.0001) READ_MFLDS_3D_RL: read field: "dEtaHdt ", #   8 in fldList, rec=6704
(PID.TID 0000.0001) READ_MFLDS_3D_RL: read field: "EtaH    ", #   9 in fldList, rec=6705
(PID.TID 0000.0001) READ_MFLDS_CHECK: - normal end ; reset MFLDS file-name: pickup.0000756000
(PID.TID 0000.0001)  OBCS_FIELDS_LOAD: Reading initial data:    756000  3.024000000000E+06
 SURF_ADJUSTMENT: Iter=        -1 Nb_pts,Vol=        12  1.77719938E+03
 SURF_ADJUSTMENT: Iter=    756000 Nb_pts,Vol=        12  1.77719656E+03
(PID.TID 0000.0001) // =======================================================
(PID.TID 0000.0001) // Model current state
(PID.TID 0000.0001) // =======================================================
(PID.TID 0000.0001) 
(PID.TID 0000.0001) // =======================================================
(PID.TID 0000.0001) // Begin MONITOR dynamic field statistics
(PID.TID 0000.0001) // =======================================================
(PID.TID 0000.0001) %MON time_tsnumber                =                756000
(PID.TID 0000.0001) %MON time_secondsf                =   3.0240000000000E+06
(PID.TID 0000.0001) %MON dynstat_eta_max              =   4.4585952696343E-01
(PID.TID 0000.0001) %MON dynstat_eta_min              =  -8.7671253122520E-01
(PID.TID 0000.0001) %MON dynstat_eta_mean             =   8.3796115211072E-03
(PID.TID 0000.0001) %MON dynstat_eta_sd               =   2.5990344143615E-01
(PID.TID 0000.0001) %MON dynstat_eta_del2             =   3.1765656383546E-04
(PID.TID 0000.0001) %MON dynstat_uvel_max             =   1.1123698178928E-02
(PID.TID 0000.0001) %MON dynstat_uvel_min             =  -3.9663892923272E-02
(PID.TID 0000.0001) %MON dynstat_uvel_mean            =   8.6842653362961E-07
(PID.TID 0000.0001) %MON dynstat_uvel_sd              =   1.5925603141493E-03
(PID.TID 0000.0001) %MON dynstat_uvel_del2            =   6.6697964326335E-08
(PID.TID 0000.0001) %MON dynstat_vvel_max             =   5.7201753973203E-02
(PID.TID 0000.0001) %MON dynstat_vvel_min             =  -7.3190499585968E-03
(PID.TID 0000.0001) %MON dynstat_vvel_mean            =   2.4751861309335E-07
(PID.TID 0000.0001) %MON dynstat_vvel_sd              =   2.0583103056724E-03
(PID.TID 0000.0001) %MON dynstat_vvel_del2            =   2.2583739849110E-08
(PID.TID 0000.0001) %MON dynstat_wvel_max             =   1.9229914835073E-03
(PID.TID 0000.0001) %MON dynstat_wvel_min             =  -4.1204567083528E-04
(PID.TID 0000.0001) %MON dynstat_wvel_mean            =   6.1788325378387E-09
(PID.TID 0000.0001) %MON dynstat_wvel_sd              =   2.6690787915731E-05
(PID.TID 0000.0001) %MON dynstat_wvel_del2            =   8.7874122004158E-09
(PID.TID 0000.0001) %MON dynstat_theta_max            =   2.9331144449555E-01
(PID.TID 0000.0001) %MON dynstat_theta_min            =  -2.2662862357724E+00
(PID.TID 0000.0001) %MON dynstat_theta_mean           =   1.7407036751432E-01
(PID.TID 0000.0001) %MON dynstat_theta_sd             =   2.3287588356410E-01
(PID.TID 0000.0001) %MON dynstat_theta_del2           =   1.4598764205920E-06
(PID.TID 0000.0001) %MON dynstat_salt_max             =   3.4777442714462E+01
(PID.TID 0000.0001) %MON dynstat_salt_min             =   2.9766697528034E+01
(PID.TID 0000.0001) %MON dynstat_salt_mean            =   3.4616487254427E+01
(PID.TID 0000.0001) %MON dynstat_salt_sd              =   5.8407989693819E-01
(PID.TID 0000.0001) %MON dynstat_salt_del2            =   1.6593666239590E-06
(PID.TID 0000.0001) %MON dynstat_sst_max              =   0.0000000000000E+00
(PID.TID 0000.0001) %MON dynstat_sst_min              =  -4.7222275334811E-01
(PID.TID 0000.0001) %MON dynstat_sst_mean             =  -4.5761903926647E-02
(PID.TID 0000.0001) %MON dynstat_sst_sd               =   9.0743409174359E-02
(PID.TID 0000.0001) %MON dynstat_sst_del2             =   8.0972069884590E-05
(PID.TID 0000.0001) %MON dynstat_sss_max              =   3.0526628946886E+01
(PID.TID 0000.0001) %MON dynstat_sss_min              =   0.0000000000000E+00
(PID.TID 0000.0001) %MON dynstat_sss_mean             =   7.2378551730868E+00
(PID.TID 0000.0001) %MON dynstat_sss_sd               =   1.2860631894832E+01
(PID.TID 0000.0001) %MON dynstat_sss_del2             =   6.8910100335333E-03
(PID.TID 0000.0001) %MON forcing_qnet_max             =   0.0000000000000E+00
(PID.TID 0000.0001) %MON forcing_qnet_min             =   0.0000000000000E+00
(PID.TID 0000.0001) %MON forcing_qnet_mean            =   0.0000000000000E+00
(PID.TID 0000.0001) %MON forcing_qnet_sd              =   0.0000000000000E+00
(PID.TID 0000.0001) %MON forcing_qnet_del2            =   0.0000000000000E+00
(PID.TID 0000.0001) %MON forcing_qsw_max              =   0.0000000000000E+00
(PID.TID 0000.0001) %MON forcing_qsw_min              =   0.0000000000000E+00
(PID.TID 0000.0001) %MON forcing_qsw_mean             =   0.0000000000000E+00
(PID.TID 0000.0001) %MON forcing_qsw_sd               =   0.0000000000000E+00
(PID.TID 0000.0001) %MON forcing_qsw_del2             =   0.0000000000000E+00
(PID.TID 0000.0001) %MON forcing_empmr_max            =   0.0000000000000E+00
(PID.TID 0000.0001) %MON forcing_empmr_min            =   0.0000000000000E+00
(PID.TID 0000.0001) %MON forcing_empmr_mean           =   0.0000000000000E+00
(PID.TID 0000.0001) %MON forcing_empmr_sd             =   0.0000000000000E+00
(PID.TID 0000.0001) %MON forcing_empmr_del2           =   0.0000000000000E+00
(PID.TID 0000.0001) %MON forcing_fu_max               =   0.0000000000000E+00
(PID.TID 0000.0001) %MON forcing_fu_min               =   0.0000000000000E+00
(PID.TID 0000.0001) %MON forcing_fu_mean              =   0.0000000000000E+00
(PID.TID 0000.0001) %MON forcing_fu_sd                =   0.0000000000000E+00
(PID.TID 0000.0001) %MON forcing_fu_del2              =   0.0000000000000E+00
(PID.TID 0000.0001) %MON forcing_fv_max               =   0.0000000000000E+00
(PID.TID 0000.0001) %MON forcing_fv_min               =   0.0000000000000E+00
(PID.TID 0000.0001) %MON forcing_fv_mean              =   0.0000000000000E+00
(PID.TID 0000.0001) %MON forcing_fv_sd                =   0.0000000000000E+00
(PID.TID 0000.0001) %MON forcing_fv_del2              =   0.0000000000000E+00
(PID.TID 0000.0001) %MON trAdv_CFL_u_max              =   0.0000000000000E+00
(PID.TID 0000.0001) %MON trAdv_CFL_v_max              =   0.0000000000000E+00
(PID.TID 0000.0001) %MON trAdv_CFL_w_max              =   0.0000000000000E+00
(PID.TID 0000.0001) %MON advcfl_uvel_max              =   9.7553440206177E-03
(PID.TID 0000.0001) %MON advcfl_vvel_max              =   2.2926497768672E-03
(PID.TID 0000.0001) %MON advcfl_wvel_max              =   7.6862780882439E-03
(PID.TID 0000.0001) %MON advcfl_W_hf_max              =   7.6862780882439E-03
(PID.TID 0000.0001) %MON pe_b_mean                    =   5.1063811591267E-04
(PID.TID 0000.0001) %MON ke_max                       =   1.9459122037840E-03
(PID.TID 0000.0001) %MON ke_mean                      =   3.3560924504821E-06
(PID.TID 0000.0001) %MON ke_vol                       =   1.7987028768044E+11
(PID.TID 0000.0001) %MON vort_r_min                   =  -3.8271389766371E-03
(PID.TID 0000.0001) %MON vort_r_max                   =   8.4021437444947E-04
(PID.TID 0000.0001) %MON vort_a_mean                  =   1.4389824102922E-04
(PID.TID 0000.0001) %MON vort_a_sd                    =   1.9008373119991E-05
(PID.TID 0000.0001) %MON vort_p_mean                  =   1.4952796545621E-04
(PID.TID 0000.0001) %MON vort_p_sd                    =   5.4723075492333E-05
(PID.TID 0000.0001) %MON surfExpan_theta_mean         =  -7.8194220769062E-10
(PID.TID 0000.0001) %MON surfExpan_salt_mean          =  -4.1794824201603E-08
(PID.TID 0000.0001) // =======================================================
(PID.TID 0000.0001) // End MONITOR dynamic field statistics
(PID.TID 0000.0001) // =======================================================
(PID.TID 0000.0001) // =======================================================
(PID.TID 0000.0001) // Begin OBCS MONITOR field statistics
(PID.TID 0000.0001) // =======================================================
(PID.TID 0000.0001) %MON obc_N_vVel_max               =   0.0000000000000E+00
(PID.TID 0000.0001) %MON obc_N_vVel_min               =   0.0000000000000E+00
(PID.TID 0000.0001) %MON obc_N_vVel_mean              =   0.0000000000000E+00
(PID.TID 0000.0001) %MON obc_N_vVel_sd                =   0.0000000000000E+00
(PID.TID 0000.0001) %MON obc_N_vVel_Int               =   0.0000000000000E+00
(PID.TID 0000.0001) // =======================================================
(PID.TID 0000.0001) // End OBCS MONITOR field statistics
(PID.TID 0000.0001) // =======================================================
 SURF_ADJUSTMENT: Iter=    756000 Nb_pts,Vol=        12  1.77719938E+03
 SURF_ADJUSTMENT: Iter=    756000 Nb_pts,Vol=        12  1.77719656E+03
(PID.TID 0000.0001) SOLVE_FOR_PRESSURE: putPmEinXvector =    F
 cg2d: Sum(rhs),rhsMax =  -1.84047919476556E+01  1.45425699103180E+00
(PID.TID 0000.0001)      cg2d_init_res =   3.44740436434064E+01
(PID.TID 0000.0001)      cg2d_iters(min,last) =      -1     149
(PID.TID 0000.0001)      cg2d_last_res =   8.92876937944315E-12
 SURF_ADJUSTMENT: Iter=    756001 Nb_pts,Vol=        12  1.77719375E+03
(PID.TID 0000.0001) // =======================================================
(PID.TID 0000.0001) // Begin MONITOR dynamic field statistics
(PID.TID 0000.0001) // =======================================================
(PID.TID 0000.0001) %MON time_tsnumber                =                756001
(PID.TID 0000.0001) %MON time_secondsf                =   3.0240040000000E+06
(PID.TID 0000.0001) %MON dynstat_eta_max              =   4.4585967427070E-01
(PID.TID 0000.0001) %MON dynstat_eta_min              =  -2.6654560880831E-01
(PID.TID 0000.0001) %MON dynstat_eta_mean             =   8.3797576387616E-03
(PID.TID 0000.0001) %MON dynstat_eta_sd               =   2.5506453769506E-01
(PID.TID 0000.0001) %MON dynstat_eta_del2             =   7.3783815582513E-05
(PID.TID 0000.0001) %MON dynstat_uvel_max             =   1.2424655345779E-02
(PID.TID 0000.0001) %MON dynstat_uvel_min             =  -3.9663880933460E-02
(PID.TID 0000.0001) %MON dynstat_uvel_mean            =   3.1259247254394E-06
(PID.TID 0000.0001) %MON dynstat_uvel_sd              =   1.8018044362708E-03
(PID.TID 0000.0001) %MON dynstat_uvel_del2            =   2.4420738640505E-07
(PID.TID 0000.0001) %MON dynstat_vvel_max             =   5.7201741407114E-02
(PID.TID 0000.0001) %MON dynstat_vvel_min             =  -1.7907280232255E-02
(PID.TID 0000.0001) %MON dynstat_vvel_mean            =  -2.3503001181125E-05
(PID.TID 0000.0001) %MON dynstat_vvel_sd              =   2.4145645116885E-03
(PID.TID 0000.0001) %MON dynstat_vvel_del2            =   2.8577347225854E-07
(PID.TID 0000.0001) %MON dynstat_wvel_max             =   2.3700404161066E-01
(PID.TID 0000.0001) %MON dynstat_wvel_min             =  -2.9753907197734E-02
(PID.TID 0000.0001) %MON dynstat_wvel_mean            =   1.4940302425539E-05
(PID.TID 0000.0001) %MON dynstat_wvel_sd              =   8.4780664030530E-03
(PID.TID 0000.0001) %MON dynstat_wvel_del2            =   3.3680994554996E-06
(PID.TID 0000.0001) %MON dynstat_theta_max            =   2.9331144448766E-01
(PID.TID 0000.0001) %MON dynstat_theta_min            =  -2.2662864079937E+00
(PID.TID 0000.0001) %MON dynstat_theta_mean           =   1.7407108018562E-01
(PID.TID 0000.0001) %MON dynstat_theta_sd             =   2.3287370527426E-01
(PID.TID 0000.0001) %MON dynstat_theta_del2           =   1.4605605780808E-06
(PID.TID 0000.0001) %MON dynstat_salt_max             =   3.4777442714457E+01
(PID.TID 0000.0001) %MON dynstat_salt_min             =   2.9766697606139E+01
(PID.TID 0000.0001) %MON dynstat_salt_mean            =   3.4616488786159E+01
(PID.TID 0000.0001) %MON dynstat_salt_sd              =   5.8408013575886E-01
(PID.TID 0000.0001) %MON dynstat_salt_del2            =   1.6650657520426E-06
(PID.TID 0000.0001) %MON dynstat_sst_max              =   0.0000000000000E+00
(PID.TID 0000.0001) %MON dynstat_sst_min              =  -4.7222249034645E-01
(PID.TID 0000.0001) %MON dynstat_sst_mean             =  -4.5761861462635E-02
(PID.TID 0000.0001) %MON dynstat_sst_sd               =   9.0743294620816E-02
(PID.TID 0000.0001) %MON dynstat_sst_del2             =   8.0971807608959E-05
(PID.TID 0000.0001) %MON dynstat_sss_max              =   3.0526629272380E+01
(PID.TID 0000.0001) %MON dynstat_sss_min              =   0.0000000000000E+00
(PID.TID 0000.0001) %MON dynstat_sss_mean             =   7.2378551731558E+00
(PID.TID 0000.0001) %MON dynstat_sss_sd               =   1.2860631894601E+01
(PID.TID 0000.0001) %MON dynstat_sss_del2             =   6.8910100140979E-03
(PID.TID 0000.0001) %MON forcing_qnet_max             =   0.0000000000000E+00
(PID.TID 0000.0001) %MON forcing_qnet_min             =   0.0000000000000E+00
(PID.TID 0000.0001) %MON forcing_qnet_mean            =   0.0000000000000E+00
(PID.TID 0000.0001) %MON forcing_qnet_sd              =   0.0000000000000E+00
(PID.TID 0000.0001) %MON forcing_qnet_del2            =   0.0000000000000E+00
(PID.TID 0000.0001) %MON forcing_qsw_max              =   0.0000000000000E+00
(PID.TID 0000.0001) %MON forcing_qsw_min              =   0.0000000000000E+00
(PID.TID 0000.0001) %MON forcing_qsw_mean             =   0.0000000000000E+00
(PID.TID 0000.0001) %MON forcing_qsw_sd               =   0.0000000000000E+00
(PID.TID 0000.0001) %MON forcing_qsw_del2             =   0.0000000000000E+00
(PID.TID 0000.0001) %MON forcing_empmr_max            =   2.2814975914040E-05
(PID.TID 0000.0001) %MON forcing_empmr_min            =  -3.6195487226127E-04
(PID.TID 0000.0001) %MON forcing_empmr_mean           =  -3.7625295995128E-05
(PID.TID 0000.0001) %MON forcing_empmr_sd             =   5.3983983504516E-05
(PID.TID 0000.0001) %MON forcing_empmr_del2           =   1.8345722514099E-07
(PID.TID 0000.0001) %MON forcing_fu_max               =   0.0000000000000E+00
(PID.TID 0000.0001) %MON forcing_fu_min               =   0.0000000000000E+00
(PID.TID 0000.0001) %MON forcing_fu_mean              =   0.0000000000000E+00
(PID.TID 0000.0001) %MON forcing_fu_sd                =   0.0000000000000E+00
(PID.TID 0000.0001) %MON forcing_fu_del2              =   0.0000000000000E+00
(PID.TID 0000.0001) %MON forcing_fv_max               =   0.0000000000000E+00
(PID.TID 0000.0001) %MON forcing_fv_min               =   0.0000000000000E+00
(PID.TID 0000.0001) %MON forcing_fv_mean              =   0.0000000000000E+00
(PID.TID 0000.0001) %MON forcing_fv_sd                =   0.0000000000000E+00
(PID.TID 0000.0001) %MON forcing_fv_del2              =   0.0000000000000E+00
(PID.TID 0000.0001) %MON trAdv_CFL_u_max              =   9.7553410717029E-03
(PID.TID 0000.0001) %MON trAdv_CFL_v_max              =   2.2925408117243E-03
(PID.TID 0000.0001) %MON trAdv_CFL_w_max              =   7.4798402994566E+00
(PID.TID 0000.0001) %MON advcfl_uvel_max              =   9.7553410717207E-03
(PID.TID 0000.0001) %MON advcfl_vvel_max              =   2.2926492732177E-03
(PID.TID 0000.0001) %MON advcfl_wvel_max              =   9.4731515322924E-01
(PID.TID 0000.0001) %MON advcfl_W_hf_max              =   7.4798402994566E+00
(PID.TID 0000.0001) %MON pe_b_mean                    =   4.9182049397521E-04
(PID.TID 0000.0001) %MON ke_max                       =   1.9459113577957E-03
(PID.TID 0000.0001) %MON ke_mean                      =   4.4978379016045E-06
(PID.TID 0000.0001) %MON ke_vol                       =   1.7987028772091E+11
(PID.TID 0000.0001) %MON vort_r_min                   =  -3.8271381336133E-03
(PID.TID 0000.0001) %MON vort_r_max                   =   8.4021394926709E-04
(PID.TID 0000.0001) %MON vort_a_mean                  =   1.4389824102922E-04
(PID.TID 0000.0001) %MON vort_a_sd                    =   1.9172091876535E-05
(PID.TID 0000.0001) %MON vort_p_mean                  =   1.4952796542294E-04
(PID.TID 0000.0001) %MON vort_p_sd                    =   5.4819212179169E-05
(PID.TID 0000.0001) %MON surfExpan_theta_mean         =  -1.1710453823841E-04
(PID.TID 0000.0001) %MON surfExpan_salt_mean          =  -2.4977611923772E-04
(PID.TID 0000.0001) // =======================================================
(PID.TID 0000.0001) // End MONITOR dynamic field statistics
(PID.TID 0000.0001) // =======================================================
(PID.TID 0000.0001) // =======================================================
(PID.TID 0000.0001) // Begin OBCS MONITOR field statistics
(PID.TID 0000.0001) // =======================================================
(PID.TID 0000.0001) %MON obc_N_vVel_max               =   0.0000000000000E+00
(PID.TID 0000.0001) %MON obc_N_vVel_min               =   0.0000000000000E+00
(PID.TID 0000.0001) %MON obc_N_vVel_mean              =   0.0000000000000E+00
(PID.TID 0000.0001) %MON obc_N_vVel_sd                =   0.0000000000000E+00
(PID.TID 0000.0001) %MON obc_N_vVel_Int               =   0.0000000000000E+00
(PID.TID 0000.0001) // =======================================================
(PID.TID 0000.0001) // End OBCS MONITOR field statistics
(PID.TID 0000.0001) // =======================================================
 cg2d: Sum(rhs),rhsMax =  -1.85848978876965E+01  1.44018902387247E+00
(PID.TID 0000.0001)      cg2d_init_res =   1.63867760924873E+00
(PID.TID 0000.0001)      cg2d_iters(min,last) =      -1     144
(PID.TID 0000.0001)      cg2d_last_res =   9.68844017444572E-12
 SURF_ADJUSTMENT: Iter=    756002 Nb_pts,Vol=        12  1.77719093E+03
(PID.TID 0000.0001) // =======================================================
(PID.TID 0000.0001) // Begin MONITOR dynamic field statistics
(PID.TID 0000.0001) // =======================================================
(PID.TID 0000.0001) %MON time_tsnumber                =                756002
(PID.TID 0000.0001) %MON time_secondsf                =   3.0240080000000E+06
(PID.TID 0000.0001) %MON dynstat_eta_max              =   4.4585982157964E-01
(PID.TID 0000.0001) %MON dynstat_eta_min              =  -2.6654546548779E-01
(PID.TID 0000.0001) %MON dynstat_eta_mean             =   8.3799043460672E-03
(PID.TID 0000.0001) %MON dynstat_eta_sd               =   2.5491718211938E-01
(PID.TID 0000.0001) %MON dynstat_eta_del2             =   7.6991469730053E-05
(PID.TID 0000.0001) %MON dynstat_uvel_max             =   1.1123695248271E-02
(PID.TID 0000.0001) %MON dynstat_uvel_min             =  -3.9663868945028E-02
(PID.TID 0000.0001) %MON dynstat_uvel_mean            =   1.4914867719401E-06
(PID.TID 0000.0001) %MON dynstat_uvel_sd              =   1.6428396236424E-03
(PID.TID 0000.0001) %MON dynstat_uvel_del2            =   7.1802323266332E-08
(PID.TID 0000.0001) %MON dynstat_vvel_max             =   5.7201728841005E-02
(PID.TID 0000.0001) %MON dynstat_vvel_min             =  -8.7259632311939E-03
(PID.TID 0000.0001) %MON dynstat_vvel_mean            =  -3.3735479864810E-05
(PID.TID 0000.0001) %MON dynstat_vvel_sd              =   2.2284678654737E-03
(PID.TID 0000.0001) %MON dynstat_vvel_del2            =   3.0693513808424E-08
(PID.TID 0000.0001) %MON dynstat_wvel_max             =   3.7391149308534E-02
(PID.TID 0000.0001) %MON dynstat_wvel_min             =  -5.5236801170266E-03
(PID.TID 0000.0001) %MON dynstat_wvel_mean            =   2.4492525399999E-06
(PID.TID 0000.0001) %MON dynstat_wvel_sd              =   1.4788392441333E-03
(PID.TID 0000.0001) %MON dynstat_wvel_del2            =   1.7294843859603E-07
(PID.TID 0000.0001) %MON dynstat_theta_max            =   2.9331144447977E-01
(PID.TID 0000.0001) %MON dynstat_theta_min            =  -2.2662865802140E+00
(PID.TID 0000.0001) %MON dynstat_theta_mean           =   1.7407061442912E-01
(PID.TID 0000.0001) %MON dynstat_theta_sd             =   2.3287511334124E-01
(PID.TID 0000.0001) %MON dynstat_theta_del2           =   1.4606078202504E-06
(PID.TID 0000.0001) %MON dynstat_salt_max             =   3.4777442714451E+01
(PID.TID 0000.0001) %MON dynstat_salt_min             =   2.9766697684244E+01
(PID.TID 0000.0001) %MON dynstat_salt_mean            =   3.4616487234692E+01
(PID.TID 0000.0001) %MON dynstat_salt_sd              =   5.8408214881342E-01
(PID.TID 0000.0001) %MON dynstat_salt_del2            =   1.6653784449882E-06
(PID.TID 0000.0001) %MON dynstat_sst_max              =   0.0000000000000E+00
(PID.TID 0000.0001) %MON dynstat_sst_min              =  -4.7222269465917E-01
(PID.TID 0000.0001) %MON dynstat_sst_mean             =  -4.5761825658471E-02
(PID.TID 0000.0001) %MON dynstat_sst_sd               =   9.0743209006935E-02
(PID.TID 0000.0001) %MON dynstat_sst_del2             =   8.0971819028362E-05
(PID.TID 0000.0001) %MON dynstat_sss_max              =   3.0526630509146E+01
(PID.TID 0000.0001) %MON dynstat_sss_min              =   0.0000000000000E+00
(PID.TID 0000.0001) %MON dynstat_sss_mean             =   7.2378551673599E+00
(PID.TID 0000.0001) %MON dynstat_sss_sd               =   1.2860631884060E+01
(PID.TID 0000.0001) %MON dynstat_sss_del2             =   6.8910102512190E-03
(PID.TID 0000.0001) %MON forcing_qnet_max             =   0.0000000000000E+00
(PID.TID 0000.0001) %MON forcing_qnet_min             =   0.0000000000000E+00
(PID.TID 0000.0001) %MON forcing_qnet_mean            =   0.0000000000000E+00
(PID.TID 0000.0001) %MON forcing_qnet_sd              =   0.0000000000000E+00
(PID.TID 0000.0001) %MON forcing_qnet_del2            =   0.0000000000000E+00
(PID.TID 0000.0001) %MON forcing_qsw_max              =   0.0000000000000E+00
(PID.TID 0000.0001) %MON forcing_qsw_min              =   0.0000000000000E+00
(PID.TID 0000.0001) %MON forcing_qsw_mean             =   0.0000000000000E+00
(PID.TID 0000.0001) %MON forcing_qsw_sd               =   0.0000000000000E+00
(PID.TID 0000.0001) %MON forcing_qsw_del2             =   0.0000000000000E+00
(PID.TID 0000.0001) %MON forcing_empmr_max            =   3.1130798381511E-05
(PID.TID 0000.0001) %MON forcing_empmr_min            =  -3.6195479461544E-04
(PID.TID 0000.0001) %MON forcing_empmr_mean           =  -3.7777131193163E-05
(PID.TID 0000.0001) %MON forcing_empmr_sd             =   5.4008945301459E-05
(PID.TID 0000.0001) %MON forcing_empmr_del2           =   1.8428276849090E-07
(PID.TID 0000.0001) %MON forcing_fu_max               =   0.0000000000000E+00
(PID.TID 0000.0001) %MON forcing_fu_min               =   0.0000000000000E+00
(PID.TID 0000.0001) %MON forcing_fu_mean              =   0.0000000000000E+00
(PID.TID 0000.0001) %MON forcing_fu_sd                =   0.0000000000000E+00
(PID.TID 0000.0001) %MON forcing_fu_del2              =   0.0000000000000E+00
(PID.TID 0000.0001) %MON forcing_fv_max               =   0.0000000000000E+00
(PID.TID 0000.0001) %MON forcing_fv_min               =   0.0000000000000E+00
(PID.TID 0000.0001) %MON forcing_fv_mean              =   0.0000000000000E+00
(PID.TID 0000.0001) %MON forcing_fv_sd                =   0.0000000000000E+00
(PID.TID 0000.0001) %MON forcing_fv_del2              =   0.0000000000000E+00
(PID.TID 0000.0001) %MON trAdv_CFL_u_max              =   9.7553381231451E-03
(PID.TID 0000.0001) %MON trAdv_CFL_v_max              =   2.2925403080977E-03
(PID.TID 0000.0001) %MON trAdv_CFL_w_max              =   2.9536485978031E-01
(PID.TID 0000.0001) %MON advcfl_uvel_max              =   9.7553381231629E-03
(PID.TID 0000.0001) %MON advcfl_vvel_max              =   2.2926487695672E-03
(PID.TID 0000.0001) %MON advcfl_wvel_max              =   1.7357243113521E-01
(PID.TID 0000.0001) %MON advcfl_W_hf_max              =   2.9544082140849E-01
(PID.TID 0000.0001) %MON pe_b_mean                    =   4.9125302122430E-04
(PID.TID 0000.0001) %MON ke_max                       =   1.9459105118017E-03
(PID.TID 0000.0001) %MON ke_mean                      =   3.7986249781736E-06
(PID.TID 0000.0001) %MON ke_vol                       =   1.7987028776137E+11
(PID.TID 0000.0001) %MON vort_r_min                   =  -3.8271372905870E-03
(PID.TID 0000.0001) %MON vort_r_max                   =   8.4021352891737E-04
(PID.TID 0000.0001) %MON vort_a_mean                  =   1.4389824102922E-04
(PID.TID 0000.0001) %MON vort_a_sd                    =   1.9098389947627E-05
(PID.TID 0000.0001) %MON vort_p_mean                  =   1.4952804042559E-04
(PID.TID 0000.0001) %MON vort_p_sd                    =   5.4763608258281E-05
(PID.TID 0000.0001) %MON surfExpan_theta_mean         =  -4.2864331943282E-05
(PID.TID 0000.0001) %MON surfExpan_salt_mean          =   1.1446729189390E-06
(PID.TID 0000.0001) // =======================================================
(PID.TID 0000.0001) // End MONITOR dynamic field statistics
(PID.TID 0000.0001) // =======================================================
(PID.TID 0000.0001) // =======================================================
(PID.TID 0000.0001) // Begin OBCS MONITOR field statistics
(PID.TID 0000.0001) // =======================================================
(PID.TID 0000.0001) %MON obc_N_vVel_max               =   0.0000000000000E+00
(PID.TID 0000.0001) %MON obc_N_vVel_min               =   0.0000000000000E+00
(PID.TID 0000.0001) %MON obc_N_vVel_mean              =   0.0000000000000E+00
(PID.TID 0000.0001) %MON obc_N_vVel_sd                =   0.0000000000000E+00
(PID.TID 0000.0001) %MON obc_N_vVel_Int               =   0.0000000000000E+00
(PID.TID 0000.0001) // =======================================================
(PID.TID 0000.0001) // End OBCS MONITOR field statistics
(PID.TID 0000.0001) // =======================================================
 SURF_ADJUSTMENT: Iter=    756002 Nb_pts,Vol=        17  3.32589558E+03
 SURF_ADJUSTMENT: Iter=    756002 Nb_pts,Vol=        12  1.77719093E+03
 cg2d: Sum(rhs),rhsMax =  -2.16331412915605E+00  8.39745699271580E+00
(PID.TID 0000.0001)      cg2d_init_res =   1.10520378708703E-01
(PID.TID 0000.0001)      cg2d_iters(min,last) =      -1     130
(PID.TID 0000.0001)      cg2d_last_res =   9.54123339283044E-12
 SURF_ADJUSTMENT: Iter=    756003 Nb_pts,Vol=        12  1.77718811E+03
(PID.TID 0000.0001) // =======================================================
(PID.TID 0000.0001) // Begin MONITOR dynamic field statistics
(PID.TID 0000.0001) // =======================================================
(PID.TID 0000.0001) %MON time_tsnumber                =                756003
(PID.TID 0000.0001) %MON time_secondsf                =   3.0240120000000E+06
(PID.TID 0000.0001) %MON dynstat_eta_max              =   4.5327918509912E-01
(PID.TID 0000.0001) %MON dynstat_eta_min              =  -8.8034780855722E-01
(PID.TID 0000.0001) %MON dynstat_eta_mean             =   5.6875700738026E-03
(PID.TID 0000.0001) %MON dynstat_eta_sd               =   2.5754172470165E-01
(PID.TID 0000.0001) %MON dynstat_eta_del2             =   3.1637463753415E-04
(PID.TID 0000.0001) %MON dynstat_uvel_max             =   1.1123693783737E-02
(PID.TID 0000.0001) %MON dynstat_uvel_min             =  -3.9663856964698E-02
(PID.TID 0000.0001) %MON dynstat_uvel_mean            =   3.5880920508948E-07
(PID.TID 0000.0001) %MON dynstat_uvel_sd              =   1.6242155706291E-03
(PID.TID 0000.0001) %MON dynstat_uvel_del2            =   6.7642674511851E-08
(PID.TID 0000.0001) %MON dynstat_vvel_max             =   5.7201716275034E-02
(PID.TID 0000.0001) %MON dynstat_vvel_min             =  -7.5330087915361E-03
(PID.TID 0000.0001) %MON dynstat_vvel_mean            =  -3.8556921227955E-05
(PID.TID 0000.0001) %MON dynstat_vvel_sd              =   2.1802362744448E-03
(PID.TID 0000.0001) %MON dynstat_vvel_del2            =   2.5129979279970E-08
(PID.TID 0000.0001) %MON dynstat_wvel_max             =   1.0678312541055E-02
(PID.TID 0000.0001) %MON dynstat_wvel_min             =  -6.4283091660886E-03
(PID.TID 0000.0001) %MON dynstat_wvel_mean            =  -3.3847015561516E-07
(PID.TID 0000.0001) %MON dynstat_wvel_sd              =   6.9370226045897E-04
(PID.TID 0000.0001) %MON dynstat_wvel_del2            =   9.9697895717319E-08
(PID.TID 0000.0001) %MON dynstat_theta_max            =   2.9331144447188E-01
(PID.TID 0000.0001) %MON dynstat_theta_min            =  -2.2662867524334E+00
(PID.TID 0000.0001) %MON dynstat_theta_mean           =   1.7407043118913E-01
(PID.TID 0000.0001) %MON dynstat_theta_sd             =   2.3287563901246E-01
(PID.TID 0000.0001) %MON dynstat_theta_del2           =   1.4606709473124E-06
(PID.TID 0000.0001) %MON dynstat_salt_max             =   3.4777442714445E+01
(PID.TID 0000.0001) %MON dynstat_salt_min             =   2.9766697762348E+01
(PID.TID 0000.0001) %MON dynstat_salt_mean            =   3.4616486993668E+01
(PID.TID 0000.0001) %MON dynstat_salt_sd              =   5.8408166774236E-01
(PID.TID 0000.0001) %MON dynstat_salt_del2            =   1.6667269302692E-06
(PID.TID 0000.0001) %MON dynstat_sst_max              =   0.0000000000000E+00
(PID.TID 0000.0001) %MON dynstat_sst_min              =  -5.2740489039139E-01
(PID.TID 0000.0001) %MON dynstat_sst_mean             =  -4.5808607242878E-02
(PID.TID 0000.0001) %MON dynstat_sst_sd               =   9.0839752136506E-02
(PID.TID 0000.0001) %MON dynstat_sst_del2             =   8.3734333050122E-05
(PID.TID 0000.0001) %MON dynstat_sss_max              =   3.0529675323883E+01
(PID.TID 0000.0001) %MON dynstat_sss_min              =   0.0000000000000E+00
(PID.TID 0000.0001) %MON dynstat_sss_mean             =   7.2409628768952E+00
(PID.TID 0000.0001) %MON dynstat_sss_sd               =   1.2862561198743E+01
(PID.TID 0000.0001) %MON dynstat_sss_del2             =   7.0181813513604E-03
(PID.TID 0000.0001) %MON forcing_qnet_max             =   0.0000000000000E+00
(PID.TID 0000.0001) %MON forcing_qnet_min             =   0.0000000000000E+00
(PID.TID 0000.0001) %MON forcing_qnet_mean            =   0.0000000000000E+00
(PID.TID 0000.0001) %MON forcing_qnet_sd              =   0.0000000000000E+00
(PID.TID 0000.0001) %MON forcing_qnet_del2            =   0.0000000000000E+00
(PID.TID 0000.0001) %MON forcing_qsw_max              =   0.0000000000000E+00
(PID.TID 0000.0001) %MON forcing_qsw_min              =   0.0000000000000E+00
(PID.TID 0000.0001) %MON forcing_qsw_mean             =   0.0000000000000E+00
(PID.TID 0000.0001) %MON forcing_qsw_sd               =   0.0000000000000E+00
(PID.TID 0000.0001) %MON forcing_qsw_del2             =   0.0000000000000E+00
(PID.TID 0000.0001) %MON forcing_empmr_max            =   4.3642984699385E-05
(PID.TID 0000.0001) %MON forcing_empmr_min            =  -3.6195471696959E-04
(PID.TID 0000.0001) %MON forcing_empmr_mean           =  -3.7258721534961E-05
(PID.TID 0000.0001) %MON forcing_empmr_sd             =   5.4152631456812E-05
(PID.TID 0000.0001) %MON forcing_empmr_del2           =   1.8364072617225E-07
(PID.TID 0000.0001) %MON forcing_fu_max               =   0.0000000000000E+00
(PID.TID 0000.0001) %MON forcing_fu_min               =   0.0000000000000E+00
(PID.TID 0000.0001) %MON forcing_fu_mean              =   0.0000000000000E+00
(PID.TID 0000.0001) %MON forcing_fu_sd                =   0.0000000000000E+00
(PID.TID 0000.0001) %MON forcing_fu_del2              =   0.0000000000000E+00
(PID.TID 0000.0001) %MON forcing_fv_max               =   0.0000000000000E+00
(PID.TID 0000.0001) %MON forcing_fv_min               =   0.0000000000000E+00
(PID.TID 0000.0001) %MON forcing_fv_mean              =   0.0000000000000E+00
(PID.TID 0000.0001) %MON forcing_fv_sd                =   0.0000000000000E+00
(PID.TID 0000.0001) %MON forcing_fv_del2              =   0.0000000000000E+00
(PID.TID 0000.0001) %MON trAdv_CFL_u_max              =   9.7553351765799E-03
(PID.TID 0000.0001) %MON trAdv_CFL_v_max              =   2.2925398044766E-03
(PID.TID 0000.0001) %MON trAdv_CFL_w_max              =   8.6057990394193E-02
(PID.TID 0000.0001) %MON advcfl_uvel_max              =   9.7553351765977E-03
(PID.TID 0000.0001) %MON advcfl_vvel_max              =   2.2926482659224E-03
(PID.TID 0000.0001) %MON advcfl_wvel_max              =   6.1891753628838E-02
(PID.TID 0000.0001) %MON advcfl_W_hf_max              =   8.6057990394193E-02
(PID.TID 0000.0001) %MON pe_b_mean                    =   4.7061016448202E-04
(PID.TID 0000.0001) %MON ke_max                       =   1.9459096658153E-03
(PID.TID 0000.0001) %MON ke_mean                      =   3.6632997389910E-06
(PID.TID 0000.0001) %MON ke_vol                       =   1.7987028780199E+11
(PID.TID 0000.0001) %MON vort_r_min                   =  -3.8271364475702E-03
(PID.TID 0000.0001) %MON vort_r_max                   =   8.4021315201482E-04
(PID.TID 0000.0001) %MON vort_a_mean                  =   1.4389824107752E-04
(PID.TID 0000.0001) %MON vort_a_sd                    =   1.9060702484060E-05
(PID.TID 0000.0001) %MON vort_p_mean                  =   1.4952876524982E-04
(PID.TID 0000.0001) %MON vort_p_sd                    =   5.4770878673497E-05
(PID.TID 0000.0001) %MON surfExpan_theta_mean         =  -1.4457327894877E-05
(PID.TID 0000.0001) %MON surfExpan_salt_mean          =   3.9287874353495E-05
(PID.TID 0000.0001) // =======================================================
(PID.TID 0000.0001) // End MONITOR dynamic field statistics
(PID.TID 0000.0001) // =======================================================
(PID.TID 0000.0001) // =======================================================
(PID.TID 0000.0001) // Begin OBCS MONITOR field statistics
(PID.TID 0000.0001) // =======================================================
(PID.TID 0000.0001) %MON obc_N_vVel_max               =   0.0000000000000E+00
(PID.TID 0000.0001) %MON obc_N_vVel_min               =   0.0000000000000E+00
(PID.TID 0000.0001) %MON obc_N_vVel_mean              =   0.0000000000000E+00
(PID.TID 0000.0001) %MON obc_N_vVel_sd                =   0.0000000000000E+00
(PID.TID 0000.0001) %MON obc_N_vVel_Int               =   0.0000000000000E+00
(PID.TID 0000.0001) // =======================================================
(PID.TID 0000.0001) // End OBCS MONITOR field statistics
(PID.TID 0000.0001) // =======================================================
 cg2d: Sum(rhs),rhsMax =  -2.15774452640662E+00  8.41934562624152E+00
(PID.TID 0000.0001)      cg2d_init_res =   2.73500411483544E-02
(PID.TID 0000.0001)      cg2d_iters(min,last) =      -1     131
(PID.TID 0000.0001)      cg2d_last_res =   9.89078191301326E-12
 SURF_ADJUSTMENT: Iter=    756004 Nb_pts,Vol=        12  1.77718530E+03
(PID.TID 0000.0001) // =======================================================
(PID.TID 0000.0001) // Begin MONITOR dynamic field statistics
(PID.TID 0000.0001) // =======================================================
(PID.TID 0000.0001) %MON time_tsnumber                =                756004
(PID.TID 0000.0001) %MON time_secondsf                =   3.0240160000000E+06
(PID.TID 0000.0001) %MON dynstat_eta_max              =   4.4998664081327E-01
(PID.TID 0000.0001) %MON dynstat_eta_min              =  -8.7988766123044E-01
(PID.TID 0000.0001) %MON dynstat_eta_mean             =   5.6877139603370E-03
(PID.TID 0000.0001) %MON dynstat_eta_sd               =   2.5756424245931E-01
(PID.TID 0000.0001) %MON dynstat_eta_del2             =   3.1712672839419E-04
(PID.TID 0000.0001) %MON dynstat_uvel_max             =   1.1123692320132E-02
(PID.TID 0000.0001) %MON dynstat_uvel_min             =  -3.9663845047834E-02
(PID.TID 0000.0001) %MON dynstat_uvel_mean            =   2.4064583073299E-07
(PID.TID 0000.0001) %MON dynstat_uvel_sd              =   1.6205587950664E-03
(PID.TID 0000.0001) %MON dynstat_uvel_del2            =   6.7282575645552E-08
(PID.TID 0000.0001) %MON dynstat_vvel_max             =   5.7201703709161E-02
(PID.TID 0000.0001) %MON dynstat_vvel_min             =  -7.8809872468316E-03
(PID.TID 0000.0001) %MON dynstat_vvel_mean            =  -3.8393024754549E-05
(PID.TID 0000.0001) %MON dynstat_vvel_sd              =   2.1537221919130E-03
(PID.TID 0000.0001) %MON dynstat_vvel_del2            =   2.4976889866848E-08
(PID.TID 0000.0001) %MON dynstat_wvel_max             =   6.6752677709121E-03
(PID.TID 0000.0001) %MON dynstat_wvel_min             =  -5.1765712821762E-03
(PID.TID 0000.0001) %MON dynstat_wvel_mean            =   1.4118338432123E-07
(PID.TID 0000.0001) %MON dynstat_wvel_sd              =   4.8638818839555E-04
(PID.TID 0000.0001) %MON dynstat_wvel_del2            =   6.5172153601122E-08
(PID.TID 0000.0001) %MON dynstat_theta_max            =   2.9331144446399E-01
(PID.TID 0000.0001) %MON dynstat_theta_min            =  -2.2662869246517E+00
(PID.TID 0000.0001) %MON dynstat_theta_mean           =   1.7407038005839E-01
(PID.TID 0000.0001) %MON dynstat_theta_sd             =   2.3287575177730E-01
(PID.TID 0000.0001) %MON dynstat_theta_del2           =   1.4606475668621E-06
(PID.TID 0000.0001) %MON dynstat_salt_max             =   3.4777442714439E+01
(PID.TID 0000.0001) %MON dynstat_salt_min             =   2.9766697840452E+01
(PID.TID 0000.0001) %MON dynstat_salt_mean            =   3.4616487088559E+01
(PID.TID 0000.0001) %MON dynstat_salt_sd              =   5.8408098269187E-01
(PID.TID 0000.0001) %MON dynstat_salt_del2            =   1.6665722263474E-06
(PID.TID 0000.0001) %MON dynstat_sst_max              =   0.0000000000000E+00
(PID.TID 0000.0001) %MON dynstat_sst_min              =  -5.2736984376941E-01
(PID.TID 0000.0001) %MON dynstat_sst_mean             =  -4.5808591353604E-02
(PID.TID 0000.0001) %MON dynstat_sst_sd               =   9.0839715376982E-02
(PID.TID 0000.0001) %MON dynstat_sst_del2             =   8.3733470114604E-05
(PID.TID 0000.0001) %MON dynstat_sss_max              =   3.0529669116699E+01
(PID.TID 0000.0001) %MON dynstat_sss_min              =   0.0000000000000E+00
(PID.TID 0000.0001) %MON dynstat_sss_mean             =   7.2409628908101E+00
(PID.TID 0000.0001) %MON dynstat_sss_sd               =   1.2862561223862E+01
(PID.TID 0000.0001) %MON dynstat_sss_del2             =   7.0181812801987E-03
(PID.TID 0000.0001) %MON forcing_qnet_max             =   0.0000000000000E+00
(PID.TID 0000.0001) %MON forcing_qnet_min             =   0.0000000000000E+00
(PID.TID 0000.0001) %MON forcing_qnet_mean            =   0.0000000000000E+00
(PID.TID 0000.0001) %MON forcing_qnet_sd              =   0.0000000000000E+00
(PID.TID 0000.0001) %MON forcing_qnet_del2            =   0.0000000000000E+00
(PID.TID 0000.0001) %MON forcing_qsw_max              =   0.0000000000000E+00
(PID.TID 0000.0001) %MON forcing_qsw_min              =   0.0000000000000E+00
(PID.TID 0000.0001) %MON forcing_qsw_mean             =   0.0000000000000E+00
(PID.TID 0000.0001) %MON forcing_qsw_sd               =   0.0000000000000E+00
(PID.TID 0000.0001) %MON forcing_qsw_del2             =   0.0000000000000E+00
(PID.TID 0000.0001) %MON forcing_empmr_max            =   4.1493584958801E-05
(PID.TID 0000.0001) %MON forcing_empmr_min            =  -3.6195463932667E-04
(PID.TID 0000.0001) %MON forcing_empmr_mean           =  -3.7050782630026E-05
(PID.TID 0000.0001) %MON forcing_empmr_sd             =   5.4235289918353E-05
(PID.TID 0000.0001) %MON forcing_empmr_del2           =   1.8347022446717E-07
(PID.TID 0000.0001) %MON forcing_fu_max               =   0.0000000000000E+00
(PID.TID 0000.0001) %MON forcing_fu_min               =   0.0000000000000E+00
(PID.TID 0000.0001) %MON forcing_fu_mean              =   0.0000000000000E+00
(PID.TID 0000.0001) %MON forcing_fu_sd                =   0.0000000000000E+00
(PID.TID 0000.0001) %MON forcing_fu_del2              =   0.0000000000000E+00
(PID.TID 0000.0001) %MON forcing_fv_max               =   0.0000000000000E+00
(PID.TID 0000.0001) %MON forcing_fv_min               =   0.0000000000000E+00
(PID.TID 0000.0001) %MON forcing_fv_mean              =   0.0000000000000E+00
(PID.TID 0000.0001) %MON forcing_fv_sd                =   0.0000000000000E+00
(PID.TID 0000.0001) %MON forcing_fv_del2              =   0.0000000000000E+00
(PID.TID 0000.0001) %MON trAdv_CFL_u_max              =   9.7553322456243E-03
(PID.TID 0000.0001) %MON trAdv_CFL_v_max              =   2.2925393008595E-03
(PID.TID 0000.0001) %MON trAdv_CFL_w_max              =   6.3293815625405E-02
(PID.TID 0000.0001) %MON advcfl_uvel_max              =   9.7553322456421E-03
(PID.TID 0000.0001) %MON advcfl_vvel_max              =   2.2926477622814E-03
(PID.TID 0000.0001) %MON advcfl_wvel_max              =   3.2157417536959E-02
(PID.TID 0000.0001) %MON advcfl_W_hf_max              =   6.3293815625405E-02
(PID.TID 0000.0001) %MON pe_b_mean                    =   4.7050554215650E-04
(PID.TID 0000.0001) %MON ke_max                       =   1.9459088198375E-03
(PID.TID 0000.0001) %MON ke_mean                      =   3.6004907268608E-06
(PID.TID 0000.0001) %MON ke_vol                       =   1.7987028784206E+11
(PID.TID 0000.0001) %MON vort_r_min                   =  -3.8271356045602E-03
(PID.TID 0000.0001) %MON vort_r_max                   =   8.4021304231839E-04
(PID.TID 0000.0001) %MON vort_a_mean                  =   1.4389824107752E-04
(PID.TID 0000.0001) %MON vort_a_sd                    =   1.9047577282525E-05
(PID.TID 0000.0001) %MON vort_p_mean                  =   1.4952876446296E-04
(PID.TID 0000.0001) %MON vort_p_sd                    =   5.4766507830082E-05
(PID.TID 0000.0001) %MON surfExpan_theta_mean         =  -7.4851158539950E-06
(PID.TID 0000.0001) %MON surfExpan_salt_mean          =   2.2892178151769E-05
(PID.TID 0000.0001) // =======================================================
(PID.TID 0000.0001) // End MONITOR dynamic field statistics
(PID.TID 0000.0001) // =======================================================
(PID.TID 0000.0001) // =======================================================
(PID.TID 0000.0001) // Begin OBCS MONITOR field statistics
(PID.TID 0000.0001) // =======================================================
(PID.TID 0000.0001) %MON obc_N_vVel_max               =   0.0000000000000E+00
(PID.TID 0000.0001) %MON obc_N_vVel_min               =   0.0000000000000E+00
(PID.TID 0000.0001) %MON obc_N_vVel_mean              =   0.0000000000000E+00
(PID.TID 0000.0001) %MON obc_N_vVel_sd                =   0.0000000000000E+00
(PID.TID 0000.0001) %MON obc_N_vVel_Int               =   0.0000000000000E+00
(PID.TID 0000.0001) // =======================================================
(PID.TID 0000.0001) // End OBCS MONITOR field statistics
(PID.TID 0000.0001) // =======================================================
 SURF_ADJUSTMENT: Iter=    756004 Nb_pts,Vol=        12  1.77718811E+03
 SURF_ADJUSTMENT: Iter=    756004 Nb_pts,Vol=        12  1.77718530E+03
 cg2d: Sum(rhs),rhsMax =  -2.14183771828924E+00  8.42030788889697E+00
(PID.TID 0000.0001)      cg2d_init_res =   1.11182425720494E-02
(PID.TID 0000.0001)      cg2d_iters(min,last) =      -1     136
(PID.TID 0000.0001)      cg2d_last_res =   9.40724377497345E-12
 SURF_ADJUSTMENT: Iter=    756005 Nb_pts,Vol=        12  1.77718248E+03
(PID.TID 0000.0001) // =======================================================
(PID.TID 0000.0001) // Begin MONITOR dynamic field statistics
(PID.TID 0000.0001) // =======================================================
(PID.TID 0000.0001) %MON time_tsnumber                =                756005
(PID.TID 0000.0001) %MON time_secondsf                =   3.0240200000000E+06
(PID.TID 0000.0001) %MON dynstat_eta_max              =   4.4875138668012E-01
(PID.TID 0000.0001) %MON dynstat_eta_min              =  -8.8088965707647E-01
(PID.TID 0000.0001) %MON dynstat_eta_mean             =   5.6464296230263E-03
(PID.TID 0000.0001) %MON dynstat_eta_sd               =   2.5763540345000E-01
(PID.TID 0000.0001) %MON dynstat_eta_del2             =   3.1850620306278E-04
(PID.TID 0000.0001) %MON dynstat_uvel_max             =   1.1123690858611E-02
(PID.TID 0000.0001) %MON dynstat_uvel_min             =  -3.9663833487971E-02
(PID.TID 0000.0001) %MON dynstat_uvel_mean            =   1.0933484758346E-06
(PID.TID 0000.0001) %MON dynstat_uvel_sd              =   1.6213477284088E-03
(PID.TID 0000.0001) %MON dynstat_uvel_del2            =   6.7284599883939E-08
(PID.TID 0000.0001) %MON dynstat_vvel_max             =   5.7201691143295E-02
(PID.TID 0000.0001) %MON dynstat_vvel_min             =  -8.1654594604972E-03
(PID.TID 0000.0001) %MON dynstat_vvel_mean            =  -3.1560108097101E-05
(PID.TID 0000.0001) %MON dynstat_vvel_sd              =   2.1353166014770E-03
(PID.TID 0000.0001) %MON dynstat_vvel_del2            =   2.6003793315797E-08
(PID.TID 0000.0001) %MON dynstat_wvel_max             =   4.9078165049278E-03
(PID.TID 0000.0001) %MON dynstat_wvel_min             =  -5.8599777969450E-03
(PID.TID 0000.0001) %MON dynstat_wvel_mean            =   7.4886274063757E-07
(PID.TID 0000.0001) %MON dynstat_wvel_sd              =   3.9088833007637E-04
(PID.TID 0000.0001) %MON dynstat_wvel_del2            =   7.4797629516302E-08
(PID.TID 0000.0001) %MON dynstat_theta_max            =   2.9331144445609E-01
(PID.TID 0000.0001) %MON dynstat_theta_min            =  -2.2662870968690E+00
(PID.TID 0000.0001) %MON dynstat_theta_mean           =   1.7407036136539E-01
(PID.TID 0000.0001) %MON dynstat_theta_sd             =   2.3287576429822E-01
(PID.TID 0000.0001) %MON dynstat_theta_del2           =   1.4606182339558E-06
(PID.TID 0000.0001) %MON dynstat_salt_max             =   3.4777442714433E+01
(PID.TID 0000.0001) %MON dynstat_salt_min             =   2.9766697918554E+01
(PID.TID 0000.0001) %MON dynstat_salt_mean            =   3.4616487147436E+01
(PID.TID 0000.0001) %MON dynstat_salt_sd              =   5.8408065092647E-01
(PID.TID 0000.0001) %MON dynstat_salt_del2            =   1.6664172536353E-06
(PID.TID 0000.0001) %MON dynstat_sst_max              =   0.0000000000000E+00
(PID.TID 0000.0001) %MON dynstat_sst_min              =  -5.2736879019334E-01
(PID.TID 0000.0001) %MON dynstat_sst_mean             =  -4.5808585507571E-02
(PID.TID 0000.0001) %MON dynstat_sst_sd               =   9.0839706352126E-02
(PID.TID 0000.0001) %MON dynstat_sst_del2             =   8.3733380238628E-05
(PID.TID 0000.0001) %MON dynstat_sss_max              =   3.0529668613165E+01
(PID.TID 0000.0001) %MON dynstat_sss_min              =   0.0000000000000E+00
(PID.TID 0000.0001) %MON dynstat_sss_mean             =   7.2409629163262E+00
(PID.TID 0000.0001) %MON dynstat_sss_sd               =   1.2862561269769E+01
(PID.TID 0000.0001) %MON dynstat_sss_del2             =   7.0181813021769E-03
(PID.TID 0000.0001) %MON forcing_qnet_max             =   0.0000000000000E+00
(PID.TID 0000.0001) %MON forcing_qnet_min             =   0.0000000000000E+00
(PID.TID 0000.0001) %MON forcing_qnet_mean            =   0.0000000000000E+00
(PID.TID 0000.0001) %MON forcing_qnet_sd              =   0.0000000000000E+00
(PID.TID 0000.0001) %MON forcing_qnet_del2            =   0.0000000000000E+00
(PID.TID 0000.0001) %MON forcing_qsw_max              =   0.0000000000000E+00
(PID.TID 0000.0001) %MON forcing_qsw_min              =   0.0000000000000E+00
(PID.TID 0000.0001) %MON forcing_qsw_mean             =   0.0000000000000E+00
(PID.TID 0000.0001) %MON forcing_qsw_sd               =   0.0000000000000E+00
(PID.TID 0000.0001) %MON forcing_qsw_del2             =   0.0000000000000E+00
(PID.TID 0000.0001) %MON forcing_empmr_max            =   4.3649870770163E-05
(PID.TID 0000.0001) %MON forcing_empmr_min            =  -3.6195456168413E-04
(PID.TID 0000.0001) %MON forcing_empmr_mean           =  -3.7084670427697E-05
(PID.TID 0000.0001) %MON forcing_empmr_sd             =   5.4213579807888E-05
(PID.TID 0000.0001) %MON forcing_empmr_del2           =   1.8348488311316E-07
(PID.TID 0000.0001) %MON forcing_fu_max               =   0.0000000000000E+00
(PID.TID 0000.0001) %MON forcing_fu_min               =   0.0000000000000E+00
(PID.TID 0000.0001) %MON forcing_fu_mean              =   0.0000000000000E+00
(PID.TID 0000.0001) %MON forcing_fu_sd                =   0.0000000000000E+00
(PID.TID 0000.0001) %MON forcing_fu_del2              =   0.0000000000000E+00
(PID.TID 0000.0001) %MON forcing_fv_max               =   0.0000000000000E+00
(PID.TID 0000.0001) %MON forcing_fv_min               =   0.0000000000000E+00
(PID.TID 0000.0001) %MON forcing_fv_mean              =   0.0000000000000E+00
(PID.TID 0000.0001) %MON forcing_fv_sd                =   0.0000000000000E+00
(PID.TID 0000.0001) %MON forcing_fv_del2              =   0.0000000000000E+00
(PID.TID 0000.0001) %MON trAdv_CFL_u_max              =   9.7553294024733E-03
(PID.TID 0000.0001) %MON trAdv_CFL_v_max              =   2.2925387972426E-03
(PID.TID 0000.0001) %MON trAdv_CFL_w_max              =   3.5892742187016E-02
(PID.TID 0000.0001) %MON advcfl_uvel_max              =   9.7553294024912E-03
(PID.TID 0000.0001) %MON advcfl_vvel_max              =   2.2926472586407E-03
(PID.TID 0000.0001) %MON advcfl_wvel_max              =   2.3422578479705E-02
(PID.TID 0000.0001) %MON advcfl_W_hf_max              =   3.5892742187016E-02
(PID.TID 0000.0001) %MON pe_b_mean                    =   4.7018973876654E-04
(PID.TID 0000.0001) %MON ke_max                       =   1.9459079738604E-03
(PID.TID 0000.0001) %MON ke_mean                      =   3.5624197872356E-06
(PID.TID 0000.0001) %MON ke_vol                       =   1.7987028788190E+11
(PID.TID 0000.0001) %MON vort_r_min                   =  -3.8271347615507E-03
(PID.TID 0000.0001) %MON vort_r_max                   =   8.4021415593545E-04
(PID.TID 0000.0001) %MON vort_a_mean                  =   1.4389824107845E-04
(PID.TID 0000.0001) %MON vort_a_sd                    =   1.9042899733970E-05
(PID.TID 0000.0001) %MON vort_p_mean                  =   1.4952876859397E-04
(PID.TID 0000.0001) %MON vort_p_sd                    =   5.4760745225294E-05
(PID.TID 0000.0001) %MON surfExpan_theta_mean         =  -5.7829726304974E-06
(PID.TID 0000.0001) %MON surfExpan_salt_mean          =   1.2344232934050E-05
(PID.TID 0000.0001) // =======================================================
(PID.TID 0000.0001) // End MONITOR dynamic field statistics
(PID.TID 0000.0001) // =======================================================
(PID.TID 0000.0001) // =======================================================
(PID.TID 0000.0001) // Begin OBCS MONITOR field statistics
(PID.TID 0000.0001) // =======================================================
(PID.TID 0000.0001) %MON obc_N_vVel_max               =   0.0000000000000E+00
(PID.TID 0000.0001) %MON obc_N_vVel_min               =   0.0000000000000E+00
(PID.TID 0000.0001) %MON obc_N_vVel_mean              =   0.0000000000000E+00
(PID.TID 0000.0001) %MON obc_N_vVel_sd                =   0.0000000000000E+00
(PID.TID 0000.0001) %MON obc_N_vVel_Int               =   0.0000000000000E+00
(PID.TID 0000.0001) // =======================================================
(PID.TID 0000.0001) // End OBCS MONITOR field statistics
(PID.TID 0000.0001) // =======================================================
 cg2d: Sum(rhs),rhsMax =  -2.14190493933215E+00  8.42025881525922E+00
(PID.TID 0000.0001)      cg2d_init_res =   7.78446287485849E-03
(PID.TID 0000.0001)      cg2d_iters(min,last) =      -1     142
(PID.TID 0000.0001)      cg2d_last_res =   9.82960105274236E-12
 SURF_ADJUSTMENT: Iter=    756006 Nb_pts,Vol=        12  1.77717967E+03
(PID.TID 0000.0001) // =======================================================
(PID.TID 0000.0001) // Begin MONITOR dynamic field statistics
(PID.TID 0000.0001) // =======================================================
(PID.TID 0000.0001) %MON time_tsnumber                =                756006
(PID.TID 0000.0001) %MON time_secondsf                =   3.0240240000000E+06
(PID.TID 0000.0001) %MON dynstat_eta_max              =   4.4771171490338E-01
(PID.TID 0000.0001) %MON dynstat_eta_min              =  -8.8432608919405E-01
(PID.TID 0000.0001) %MON dynstat_eta_mean             =   5.6465739263322E-03
(PID.TID 0000.0001) %MON dynstat_eta_sd               =   2.5765581358186E-01
(PID.TID 0000.0001) %MON dynstat_eta_del2             =   3.1846578432089E-04
(PID.TID 0000.0001) %MON dynstat_uvel_max             =   1.1123689398256E-02
(PID.TID 0000.0001) %MON dynstat_uvel_min             =  -3.9663823582540E-02
(PID.TID 0000.0001) %MON dynstat_uvel_mean            =   2.4808211693063E-06
(PID.TID 0000.0001) %MON dynstat_uvel_sd              =   1.6236107548538E-03
(PID.TID 0000.0001) %MON dynstat_uvel_del2            =   6.7486701066956E-08
(PID.TID 0000.0001) %MON dynstat_vvel_max             =   5.7201678577596E-02
(PID.TID 0000.0001) %MON dynstat_vvel_min             =  -8.3402470436699E-03
(PID.TID 0000.0001) %MON dynstat_vvel_mean            =  -1.7127689534600E-05
(PID.TID 0000.0001) %MON dynstat_vvel_sd              =   2.1206966641813E-03
(PID.TID 0000.0001) %MON dynstat_vvel_del2            =   2.7425544979634E-08
(PID.TID 0000.0001) %MON dynstat_wvel_max             =   3.3402455539799E-03
(PID.TID 0000.0001) %MON dynstat_wvel_min             =  -6.8269549975481E-03
(PID.TID 0000.0001) %MON dynstat_wvel_mean            =   1.2585822941268E-06
(PID.TID 0000.0001) %MON dynstat_wvel_sd              =   3.5183600282504E-04
(PID.TID 0000.0001) %MON dynstat_wvel_del2            =   9.1900434966154E-08
(PID.TID 0000.0001) %MON dynstat_theta_max            =   2.9331144444820E-01
(PID.TID 0000.0001) %MON dynstat_theta_min            =  -2.2662872690854E+00
(PID.TID 0000.0001) %MON dynstat_theta_mean           =   1.7407034994845E-01
(PID.TID 0000.0001) %MON dynstat_theta_sd             =   2.3287575525938E-01
(PID.TID 0000.0001) %MON dynstat_theta_del2           =   1.4605775176975E-06
(PID.TID 0000.0001) %MON dynstat_salt_max             =   3.4777442714427E+01
(PID.TID 0000.0001) %MON dynstat_salt_min             =   2.9766697996646E+01
(PID.TID 0000.0001) %MON dynstat_salt_mean            =   3.4616487179137E+01
(PID.TID 0000.0001) %MON dynstat_salt_sd              =   5.8408044702472E-01
(PID.TID 0000.0001) %MON dynstat_salt_del2            =   1.6662108338075E-06
(PID.TID 0000.0001) %MON dynstat_sst_max              =   0.0000000000000E+00
(PID.TID 0000.0001) %MON dynstat_sst_min              =  -5.2736653023176E-01
(PID.TID 0000.0001) %MON dynstat_sst_mean             =  -4.5808585037013E-02
(PID.TID 0000.0001) %MON dynstat_sst_sd               =   9.0839704465090E-02
(PID.TID 0000.0001) %MON dynstat_sst_del2             =   8.3733269717901E-05
(PID.TID 0000.0001) %MON dynstat_sss_max              =   3.0529667913870E+01
(PID.TID 0000.0001) %MON dynstat_sss_min              =   0.0000000000000E+00
(PID.TID 0000.0001) %MON dynstat_sss_mean             =   7.2409629539174E+00
(PID.TID 0000.0001) %MON dynstat_sss_sd               =   1.2862561337189E+01
(PID.TID 0000.0001) %MON dynstat_sss_del2             =   7.0181813176100E-03
(PID.TID 0000.0001) %MON forcing_qnet_max             =   0.0000000000000E+00
(PID.TID 0000.0001) %MON forcing_qnet_min             =   0.0000000000000E+00
(PID.TID 0000.0001) %MON forcing_qnet_mean            =   0.0000000000000E+00
(PID.TID 0000.0001) %MON forcing_qnet_sd              =   0.0000000000000E+00
(PID.TID 0000.0001) %MON forcing_qnet_del2            =   0.0000000000000E+00
(PID.TID 0000.0001) %MON forcing_qsw_max              =   0.0000000000000E+00
(PID.TID 0000.0001) %MON forcing_qsw_min              =   0.0000000000000E+00
(PID.TID 0000.0001) %MON forcing_qsw_mean             =   0.0000000000000E+00
(PID.TID 0000.0001) %MON forcing_qsw_sd               =   0.0000000000000E+00
(PID.TID 0000.0001) %MON forcing_qsw_del2             =   0.0000000000000E+00
(PID.TID 0000.0001) %MON forcing_empmr_max            =   4.6187986080105E-05
(PID.TID 0000.0001) %MON forcing_empmr_min            =  -3.6195448404078E-04
(PID.TID 0000.0001) %MON forcing_empmr_mean           =  -3.7158101238588E-05
(PID.TID 0000.0001) %MON forcing_empmr_sd             =   5.4182500080817E-05
(PID.TID 0000.0001) %MON forcing_empmr_del2           =   1.8351636424299E-07
(PID.TID 0000.0001) %MON forcing_fu_max               =   0.0000000000000E+00
(PID.TID 0000.0001) %MON forcing_fu_min               =   0.0000000000000E+00
(PID.TID 0000.0001) %MON forcing_fu_mean              =   0.0000000000000E+00
(PID.TID 0000.0001) %MON forcing_fu_sd                =   0.0000000000000E+00
(PID.TID 0000.0001) %MON forcing_fu_del2              =   0.0000000000000E+00
(PID.TID 0000.0001) %MON forcing_fv_max               =   0.0000000000000E+00
(PID.TID 0000.0001) %MON forcing_fv_min               =   0.0000000000000E+00
(PID.TID 0000.0001) %MON forcing_fv_mean              =   0.0000000000000E+00
(PID.TID 0000.0001) %MON forcing_fv_sd                =   0.0000000000000E+00
(PID.TID 0000.0001) %MON forcing_fv_del2              =   0.0000000000000E+00
(PID.TID 0000.0001) %MON trAdv_CFL_u_max              =   9.7553269662301E-03
(PID.TID 0000.0001) %MON trAdv_CFL_v_max              =   2.2925382936325E-03
(PID.TID 0000.0001) %MON trAdv_CFL_w_max              =   2.8637460010012E-02
(PID.TID 0000.0001) %MON advcfl_uvel_max              =   9.7553269662480E-03
(PID.TID 0000.0001) %MON advcfl_vvel_max              =   2.2926467550067E-03
(PID.TID 0000.0001) %MON advcfl_wvel_max              =   2.7287627146104E-02
(PID.TID 0000.0001) %MON advcfl_W_hf_max              =   2.8673031696327E-02
(PID.TID 0000.0001) %MON pe_b_mean                    =   4.7025200002562E-04
(PID.TID 0000.0001) %MON ke_max                       =   1.9459071278941E-03
(PID.TID 0000.0001) %MON ke_mean                      =   3.5348941690039E-06
(PID.TID 0000.0001) %MON ke_vol                       =   1.7987028792178E+11
(PID.TID 0000.0001) %MON vort_r_min                   =  -3.8271339185522E-03
(PID.TID 0000.0001) %MON vort_r_max                   =   8.4021971644091E-04
(PID.TID 0000.0001) %MON vort_a_mean                  =   1.4389824107845E-04
(PID.TID 0000.0001) %MON vort_a_sd                    =   1.9041536083852E-05
(PID.TID 0000.0001) %MON vort_p_mean                  =   1.4952876487454E-04
(PID.TID 0000.0001) %MON vort_p_sd                    =   5.4748117582549E-05
(PID.TID 0000.0001) %MON surfExpan_theta_mean         =  -5.2685184480338E-06
(PID.TID 0000.0001) %MON surfExpan_salt_mean          =   6.2079004637446E-06
(PID.TID 0000.0001) // =======================================================
(PID.TID 0000.0001) // End MONITOR dynamic field statistics
(PID.TID 0000.0001) // =======================================================
(PID.TID 0000.0001) // =======================================================
(PID.TID 0000.0001) // Begin OBCS MONITOR field statistics
(PID.TID 0000.0001) // =======================================================
(PID.TID 0000.0001) %MON obc_N_vVel_max               =   0.0000000000000E+00
(PID.TID 0000.0001) %MON obc_N_vVel_min               =   0.0000000000000E+00
(PID.TID 0000.0001) %MON obc_N_vVel_mean              =   0.0000000000000E+00
(PID.TID 0000.0001) %MON obc_N_vVel_sd                =   0.0000000000000E+00
(PID.TID 0000.0001) %MON obc_N_vVel_Int               =   0.0000000000000E+00
(PID.TID 0000.0001) // =======================================================
(PID.TID 0000.0001) // End OBCS MONITOR field statistics
(PID.TID 0000.0001) // =======================================================
 SURF_ADJUSTMENT: Iter=    756006 Nb_pts,Vol=        12  1.77718248E+03
 SURF_ADJUSTMENT: Iter=    756006 Nb_pts,Vol=        12  1.77717967E+03
 cg2d: Sum(rhs),rhsMax =  -2.14194868388848E+00  8.42030250486787E+00
(PID.TID 0000.0001)      cg2d_init_res =   6.09819885911175E-03
(PID.TID 0000.0001)      cg2d_iters(min,last) =      -1     148
(PID.TID 0000.0001)      cg2d_last_res =   9.08266964810714E-12
 SURF_ADJUSTMENT: Iter=    756007 Nb_pts,Vol=        12  1.77717685E+03
(PID.TID 0000.0001) // =======================================================
(PID.TID 0000.0001) // Begin MONITOR dynamic field statistics
(PID.TID 0000.0001) // =======================================================
(PID.TID 0000.0001) %MON time_tsnumber                =                756007
(PID.TID 0000.0001) %MON time_secondsf                =   3.0240280000000E+06
(PID.TID 0000.0001) %MON dynstat_eta_max              =   4.4677051500446E-01
(PID.TID 0000.0001) %MON dynstat_eta_min              =  -8.8683374393849E-01
(PID.TID 0000.0001) %MON dynstat_eta_mean             =   5.6467185460316E-03
(PID.TID 0000.0001) %MON dynstat_eta_sd               =   2.5769110727129E-01
(PID.TID 0000.0001) %MON dynstat_eta_del2             =   3.1845418650909E-04
(PID.TID 0000.0001) %MON dynstat_uvel_max             =   1.1123687939083E-02
(PID.TID 0000.0001) %MON dynstat_uvel_min             =  -3.9663820043128E-02
(PID.TID 0000.0001) %MON dynstat_uvel_mean            =   3.7890236752565E-06
(PID.TID 0000.0001) %MON dynstat_uvel_sd              =   1.6256377245391E-03
(PID.TID 0000.0001) %MON dynstat_uvel_del2            =   6.7746508925796E-08
(PID.TID 0000.0001) %MON dynstat_vvel_max             =   5.7201666012768E-02
(PID.TID 0000.0001) %MON dynstat_vvel_min             =  -9.3586905944765E-03
(PID.TID 0000.0001) %MON dynstat_vvel_mean            =   4.7367846454738E-06
(PID.TID 0000.0001) %MON dynstat_vvel_sd              =   2.1079613645163E-03
(PID.TID 0000.0001) %MON dynstat_vvel_del2            =   2.8993592900140E-08
(PID.TID 0000.0001) %MON dynstat_wvel_max             =   3.6844701296056E-03
(PID.TID 0000.0001) %MON dynstat_wvel_min             =  -7.8958704983499E-03
(PID.TID 0000.0001) %MON dynstat_wvel_mean            =   1.7360695900491E-06
(PID.TID 0000.0001) %MON dynstat_wvel_sd              =   3.3084878313901E-04
(PID.TID 0000.0001) %MON dynstat_wvel_del2            =   1.0795574658161E-07
(PID.TID 0000.0001) %MON dynstat_theta_max            =   2.9331144444031E-01
(PID.TID 0000.0001) %MON dynstat_theta_min            =  -2.2662874413007E+00
(PID.TID 0000.0001) %MON dynstat_theta_mean           =   1.7407034055839E-01
(PID.TID 0000.0001) %MON dynstat_theta_sd             =   2.3287574158075E-01
(PID.TID 0000.0001) %MON dynstat_theta_del2           =   1.4605275172067E-06
(PID.TID 0000.0001) %MON dynstat_salt_max             =   3.4777442714422E+01
(PID.TID 0000.0001) %MON dynstat_salt_min             =   2.9766698074702E+01
(PID.TID 0000.0001) %MON dynstat_salt_mean            =   3.4616487212248E+01
(PID.TID 0000.0001) %MON dynstat_salt_sd              =   5.8408023435824E-01
(PID.TID 0000.0001) %MON dynstat_salt_del2            =   1.6659709411673E-06
(PID.TID 0000.0001) %MON dynstat_sst_max              =   0.0000000000000E+00
(PID.TID 0000.0001) %MON dynstat_sst_min              =  -5.2726641594618E-01
(PID.TID 0000.0001) %MON dynstat_sst_mean             =  -4.5808583243885E-02
(PID.TID 0000.0001) %MON dynstat_sst_sd               =   9.0839681285660E-02
(PID.TID 0000.0001) %MON dynstat_sst_del2             =   8.3732127704469E-05
(PID.TID 0000.0001) %MON dynstat_sss_max              =   3.0529667732552E+01
(PID.TID 0000.0001) %MON dynstat_sss_min              =   0.0000000000000E+00
(PID.TID 0000.0001) %MON dynstat_sss_mean             =   7.2409630018534E+00
(PID.TID 0000.0001) %MON dynstat_sss_sd               =   1.2862561422933E+01
(PID.TID 0000.0001) %MON dynstat_sss_del2             =   7.0181813244160E-03
(PID.TID 0000.0001) %MON forcing_qnet_max             =   0.0000000000000E+00
(PID.TID 0000.0001) %MON forcing_qnet_min             =   0.0000000000000E+00
(PID.TID 0000.0001) %MON forcing_qnet_mean            =   0.0000000000000E+00
(PID.TID 0000.0001) %MON forcing_qnet_sd              =   0.0000000000000E+00
(PID.TID 0000.0001) %MON forcing_qnet_del2            =   0.0000000000000E+00
(PID.TID 0000.0001) %MON forcing_qsw_max              =   0.0000000000000E+00
(PID.TID 0000.0001) %MON forcing_qsw_min              =   0.0000000000000E+00
(PID.TID 0000.0001) %MON forcing_qsw_mean             =   0.0000000000000E+00
(PID.TID 0000.0001) %MON forcing_qsw_sd               =   0.0000000000000E+00
(PID.TID 0000.0001) %MON forcing_qsw_del2             =   0.0000000000000E+00
(PID.TID 0000.0001) %MON forcing_empmr_max            =   4.6858911220560E-05
(PID.TID 0000.0001) %MON forcing_empmr_min            =  -3.6195440639923E-04
(PID.TID 0000.0001) %MON forcing_empmr_mean           =  -3.7239572616059E-05
(PID.TID 0000.0001) %MON forcing_empmr_sd             =   5.4150475612808E-05
(PID.TID 0000.0001) %MON forcing_empmr_del2           =   1.8355435273161E-07
(PID.TID 0000.0001) %MON forcing_fu_max               =   0.0000000000000E+00
(PID.TID 0000.0001) %MON forcing_fu_min               =   0.0000000000000E+00
(PID.TID 0000.0001) %MON forcing_fu_mean              =   0.0000000000000E+00
(PID.TID 0000.0001) %MON forcing_fu_sd                =   0.0000000000000E+00
(PID.TID 0000.0001) %MON forcing_fu_del2              =   0.0000000000000E+00
(PID.TID 0000.0001) %MON forcing_fv_max               =   0.0000000000000E+00
(PID.TID 0000.0001) %MON forcing_fv_min               =   0.0000000000000E+00
(PID.TID 0000.0001) %MON forcing_fv_mean              =   0.0000000000000E+00
(PID.TID 0000.0001) %MON forcing_fv_sd                =   0.0000000000000E+00
(PID.TID 0000.0001) %MON forcing_fv_del2              =   0.0000000000000E+00
(PID.TID 0000.0001) %MON trAdv_CFL_u_max              =   9.7553260957110E-03
(PID.TID 0000.0001) %MON trAdv_CFL_v_max              =   2.2925377900572E-03
(PID.TID 0000.0001) %MON trAdv_CFL_w_max              =   3.1560127499050E-02
(PID.TID 0000.0001) %MON advcfl_uvel_max              =   9.7553260957288E-03
(PID.TID 0000.0001) %MON advcfl_vvel_max              =   2.2926462514077E-03
(PID.TID 0000.0001) %MON advcfl_wvel_max              =   3.1560127499050E-02
(PID.TID 0000.0001) %MON advcfl_W_hf_max              =   3.1560127499050E-02
(PID.TID 0000.0001) %MON pe_b_mean                    =   4.7037202048147E-04
(PID.TID 0000.0001) %MON ke_max                       =   1.9459062819839E-03
(PID.TID 0000.0001) %MON ke_mean                      =   3.5113541974814E-06
(PID.TID 0000.0001) %MON ke_vol                       =   1.7987028796174E+11
(PID.TID 0000.0001) %MON vort_r_min                   =  -3.8271330756126E-03
(PID.TID 0000.0001) %MON vort_r_max                   =   8.4023861937050E-04
(PID.TID 0000.0001) %MON vort_a_mean                  =   1.4389824107846E-04
(PID.TID 0000.0001) %MON vort_a_sd                    =   1.9041299590246E-05
(PID.TID 0000.0001) %MON vort_p_mean                  =   1.4952876189445E-04
(PID.TID 0000.0001) %MON vort_p_sd                    =   5.4727728832481E-05
(PID.TID 0000.0001) %MON surfExpan_theta_mean         =  -5.0900664043753E-06
(PID.TID 0000.0001) %MON surfExpan_salt_mean          =  -1.5883271903122E-07
(PID.TID 0000.0001) // =======================================================
(PID.TID 0000.0001) // End MONITOR dynamic field statistics
(PID.TID 0000.0001) // =======================================================
(PID.TID 0000.0001) // =======================================================
(PID.TID 0000.0001) // Begin OBCS MONITOR field statistics
(PID.TID 0000.0001) // =======================================================
(PID.TID 0000.0001) %MON obc_N_vVel_max               =   0.0000000000000E+00
(PID.TID 0000.0001) %MON obc_N_vVel_min               =   0.0000000000000E+00
(PID.TID 0000.0001) %MON obc_N_vVel_mean              =   0.0000000000000E+00
(PID.TID 0000.0001) %MON obc_N_vVel_sd                =   0.0000000000000E+00
(PID.TID 0000.0001) %MON obc_N_vVel_Int               =   0.0000000000000E+00
(PID.TID 0000.0001) // =======================================================
(PID.TID 0000.0001) // End OBCS MONITOR field statistics
(PID.TID 0000.0001) // =======================================================
 cg2d: Sum(rhs),rhsMax =  -2.14201019550634E+00  8.42027679305234E+00
(PID.TID 0000.0001)      cg2d_init_res =   4.93687636953950E-03
(PID.TID 0000.0001)      cg2d_iters(min,last) =      -1     152
(PID.TID 0000.0001)      cg2d_last_res =   9.26323327491294E-12
 SURF_ADJUSTMENT: Iter=    756008 Nb_pts,Vol=        12  1.77717404E+03
(PID.TID 0000.0001) // =======================================================
(PID.TID 0000.0001) // Begin MONITOR dynamic field statistics
(PID.TID 0000.0001) // =======================================================
(PID.TID 0000.0001) %MON time_tsnumber                =                756008
(PID.TID 0000.0001) %MON time_secondsf                =   3.0240320000000E+06
(PID.TID 0000.0001) %MON dynstat_eta_max              =   4.4587381242547E-01
(PID.TID 0000.0001) %MON dynstat_eta_min              =  -8.8810312777658E-01
(PID.TID 0000.0001) %MON dynstat_eta_mean             =   5.6468634631829E-03
(PID.TID 0000.0001) %MON dynstat_eta_sd               =   2.5773758468847E-01
(PID.TID 0000.0001) %MON dynstat_eta_del2             =   3.1844539540551E-04
(PID.TID 0000.0001) %MON dynstat_uvel_max             =   1.1123686480797E-02
(PID.TID 0000.0001) %MON dynstat_uvel_min             =  -3.9663837316687E-02
(PID.TID 0000.0001) %MON dynstat_uvel_mean            =   4.5154572658745E-06
(PID.TID 0000.0001) %MON dynstat_uvel_sd              =   1.6277107763655E-03
(PID.TID 0000.0001) %MON dynstat_uvel_del2            =   6.8042136242493E-08
(PID.TID 0000.0001) %MON dynstat_vvel_max             =   5.7201653452401E-02
(PID.TID 0000.0001) %MON dynstat_vvel_min             =  -1.0391426373193E-02
(PID.TID 0000.0001) %MON dynstat_vvel_mean            =   3.2858556723792E-05
(PID.TID 0000.0001) %MON dynstat_vvel_sd              =   2.0966471086535E-03
(PID.TID 0000.0001) %MON dynstat_vvel_del2            =   3.0624994203573E-08
(PID.TID 0000.0001) %MON dynstat_wvel_max             =   4.1262705117092E-03
(PID.TID 0000.0001) %MON dynstat_wvel_min             =  -9.0695307222526E-03
(PID.TID 0000.0001) %MON dynstat_wvel_mean            =   2.1163543622415E-06
(PID.TID 0000.0001) %MON dynstat_wvel_sd              =   3.1877757477273E-04
(PID.TID 0000.0001) %MON dynstat_wvel_del2            =   1.2290770934753E-07
(PID.TID 0000.0001) %MON dynstat_theta_max            =   2.9331144443242E-01
(PID.TID 0000.0001) %MON dynstat_theta_min            =  -2.2662876135150E+00
(PID.TID 0000.0001) %MON dynstat_theta_mean           =   1.7407033144875E-01
(PID.TID 0000.0001) %MON dynstat_theta_sd             =   2.3287572936139E-01
(PID.TID 0000.0001) %MON dynstat_theta_del2           =   1.4604730580481E-06
(PID.TID 0000.0001) %MON dynstat_salt_max             =   3.4777442714416E+01
(PID.TID 0000.0001) %MON dynstat_salt_min             =   2.9766698152630E+01
(PID.TID 0000.0001) %MON dynstat_salt_mean            =   3.4616487247311E+01
(PID.TID 0000.0001) %MON dynstat_salt_sd              =   5.8408000863990E-01
(PID.TID 0000.0001) %MON dynstat_salt_del2            =   1.6657075066239E-06
(PID.TID 0000.0001) %MON dynstat_sst_max              =   0.0000000000000E+00
(PID.TID 0000.0001) %MON dynstat_sst_min              =  -5.2723047035399E-01
(PID.TID 0000.0001) %MON dynstat_sst_mean             =  -4.5808584707412E-02
(PID.TID 0000.0001) %MON dynstat_sst_sd               =   9.0839670876053E-02
(PID.TID 0000.0001) %MON dynstat_sst_del2             =   8.3731612521621E-05
(PID.TID 0000.0001) %MON dynstat_sss_max              =   3.0529664523858E+01
(PID.TID 0000.0001) %MON dynstat_sss_min              =   0.0000000000000E+00
(PID.TID 0000.0001) %MON dynstat_sss_mean             =   7.2409630561847E+00
(PID.TID 0000.0001) %MON dynstat_sss_sd               =   1.2862561519941E+01
(PID.TID 0000.0001) %MON dynstat_sss_del2             =   7.0181813012091E-03
(PID.TID 0000.0001) %MON forcing_qnet_max             =   0.0000000000000E+00
(PID.TID 0000.0001) %MON forcing_qnet_min             =   0.0000000000000E+00
(PID.TID 0000.0001) %MON forcing_qnet_mean            =   0.0000000000000E+00
(PID.TID 0000.0001) %MON forcing_qnet_sd              =   0.0000000000000E+00
(PID.TID 0000.0001) %MON forcing_qnet_del2            =   0.0000000000000E+00
(PID.TID 0000.0001) %MON forcing_qsw_max              =   0.0000000000000E+00
(PID.TID 0000.0001) %MON forcing_qsw_min              =   0.0000000000000E+00
(PID.TID 0000.0001) %MON forcing_qsw_mean             =   0.0000000000000E+00
(PID.TID 0000.0001) %MON forcing_qsw_sd               =   0.0000000000000E+00
(PID.TID 0000.0001) %MON forcing_qsw_del2             =   0.0000000000000E+00
(PID.TID 0000.0001) %MON forcing_empmr_max            =   4.5821500525307E-05
(PID.TID 0000.0001) %MON forcing_empmr_min            =  -3.6195432876687E-04
(PID.TID 0000.0001) %MON forcing_empmr_mean           =  -3.7316166445005E-05
(PID.TID 0000.0001) %MON forcing_empmr_sd             =   5.4120720386319E-05
(PID.TID 0000.0001) %MON forcing_empmr_del2           =   1.8359531381448E-07
(PID.TID 0000.0001) %MON forcing_fu_max               =   0.0000000000000E+00
(PID.TID 0000.0001) %MON forcing_fu_min               =   0.0000000000000E+00
(PID.TID 0000.0001) %MON forcing_fu_mean              =   0.0000000000000E+00
(PID.TID 0000.0001) %MON forcing_fu_sd                =   0.0000000000000E+00
(PID.TID 0000.0001) %MON forcing_fu_del2              =   0.0000000000000E+00
(PID.TID 0000.0001) %MON forcing_fv_max               =   0.0000000000000E+00
(PID.TID 0000.0001) %MON forcing_fv_min               =   0.0000000000000E+00
(PID.TID 0000.0001) %MON forcing_fv_mean              =   0.0000000000000E+00
(PID.TID 0000.0001) %MON forcing_fv_sd                =   0.0000000000000E+00
(PID.TID 0000.0001) %MON forcing_fv_del2              =   0.0000000000000E+00
(PID.TID 0000.0001) %MON trAdv_CFL_u_max              =   9.7553303441470E-03
(PID.TID 0000.0001) %MON trAdv_CFL_v_max              =   2.2925372866608E-03
(PID.TID 0000.0001) %MON trAdv_CFL_w_max              =   3.6251296929283E-02
(PID.TID 0000.0001) %MON advcfl_uvel_max              =   9.7553303441649E-03
(PID.TID 0000.0001) %MON advcfl_vvel_max              =   2.2926457479874E-03
(PID.TID 0000.0001) %MON advcfl_wvel_max              =   3.6251296929283E-02
(PID.TID 0000.0001) %MON advcfl_W_hf_max              =   3.6251296929283E-02
(PID.TID 0000.0001) %MON pe_b_mean                    =   4.7053807997436E-04
(PID.TID 0000.0001) %MON ke_max                       =   1.9459054363584E-03
(PID.TID 0000.0001) %MON ke_mean                      =   3.4916607667760E-06
(PID.TID 0000.0001) %MON ke_vol                       =   1.7987028800178E+11
(PID.TID 0000.0001) %MON vort_r_min                   =  -3.8271322329737E-03
(PID.TID 0000.0001) %MON vort_r_max                   =   8.4029147307307E-04
(PID.TID 0000.0001) %MON vort_a_mean                  =   1.4389824107846E-04
(PID.TID 0000.0001) %MON vort_a_sd                    =   1.9041694495732E-05
(PID.TID 0000.0001) %MON vort_p_mean                  =   1.4952876051562E-04
(PID.TID 0000.0001) %MON vort_p_sd                    =   5.4702169908597E-05
(PID.TID 0000.0001) %MON surfExpan_theta_mean         =  -4.9636142314439E-06
(PID.TID 0000.0001) %MON surfExpan_salt_mean          =  -6.8437330101474E-06
(PID.TID 0000.0001) // =======================================================
(PID.TID 0000.0001) // End MONITOR dynamic field statistics
(PID.TID 0000.0001) // =======================================================
(PID.TID 0000.0001) // =======================================================
(PID.TID 0000.0001) // Begin OBCS MONITOR field statistics
(PID.TID 0000.0001) // =======================================================
(PID.TID 0000.0001) %MON obc_N_vVel_max               =   0.0000000000000E+00
(PID.TID 0000.0001) %MON obc_N_vVel_min               =   0.0000000000000E+00
(PID.TID 0000.0001) %MON obc_N_vVel_mean              =   0.0000000000000E+00
(PID.TID 0000.0001) %MON obc_N_vVel_sd                =   0.0000000000000E+00
(PID.TID 0000.0001) %MON obc_N_vVel_Int               =   0.0000000000000E+00
(PID.TID 0000.0001) // =======================================================
(PID.TID 0000.0001) // End OBCS MONITOR field statistics
(PID.TID 0000.0001) // =======================================================
 SURF_ADJUSTMENT: Iter=    756008 Nb_pts,Vol=        12  1.77717685E+03
 SURF_ADJUSTMENT: Iter=    756008 Nb_pts,Vol=        12  1.77717404E+03
 cg2d: Sum(rhs),rhsMax =  -2.14211826132786E+00  8.42006846191302E+00
(PID.TID 0000.0001)      cg2d_init_res =   4.09447760669927E-03
(PID.TID 0000.0001)      cg2d_iters(min,last) =      -1     156
(PID.TID 0000.0001)      cg2d_last_res =   8.77607478061646E-12
 SURF_ADJUSTMENT: Iter=    756009 Nb_pts,Vol=        12  1.77717122E+03
(PID.TID 0000.0001) // =======================================================
(PID.TID 0000.0001) // Begin MONITOR dynamic field statistics
(PID.TID 0000.0001) // =======================================================
(PID.TID 0000.0001) %MON time_tsnumber                =                756009
(PID.TID 0000.0001) %MON time_secondsf                =   3.0240360000000E+06
(PID.TID 0000.0001) %MON dynstat_eta_max              =   4.4586022609772E-01
(PID.TID 0000.0001) %MON dynstat_eta_min              =  -8.8840887165513E-01
(PID.TID 0000.0001) %MON dynstat_eta_mean             =   5.6470086316557E-03
(PID.TID 0000.0001) %MON dynstat_eta_sd               =   2.5779063447824E-01
(PID.TID 0000.0001) %MON dynstat_eta_del2             =   3.1843493655561E-04
(PID.TID 0000.0001) %MON dynstat_uvel_max             =   1.1123685023152E-02
(PID.TID 0000.0001) %MON dynstat_uvel_min             =  -3.9663913739928E-02
(PID.TID 0000.0001) %MON dynstat_uvel_mean            =   4.3937805151534E-06
(PID.TID 0000.0001) %MON dynstat_uvel_sd              =   1.6303428994924E-03
(PID.TID 0000.0001) %MON dynstat_uvel_del2            =   6.8368158625757E-08
(PID.TID 0000.0001) %MON dynstat_vvel_max             =   5.7201640911987E-02
(PID.TID 0000.0001) %MON dynstat_vvel_min             =  -1.1336655757379E-02
(PID.TID 0000.0001) %MON dynstat_vvel_mean            =   6.5138204589247E-05
(PID.TID 0000.0001) %MON dynstat_vvel_sd              =   2.0871067234834E-03
(PID.TID 0000.0001) %MON dynstat_vvel_del2            =   3.2268987586628E-08
(PID.TID 0000.0001) %MON dynstat_wvel_max             =   4.8976929440844E-03
(PID.TID 0000.0001) %MON dynstat_wvel_min             =  -1.0211452128270E-02
(PID.TID 0000.0001) %MON dynstat_wvel_mean            =   2.3509097187300E-06
(PID.TID 0000.0001) %MON dynstat_wvel_sd              =   3.1687560992988E-04
(PID.TID 0000.0001) %MON dynstat_wvel_del2            =   1.3682865264647E-07
(PID.TID 0000.0001) %MON dynstat_theta_max            =   2.9331144442453E-01
(PID.TID 0000.0001) %MON dynstat_theta_min            =  -2.2662877857283E+00
(PID.TID 0000.0001) %MON dynstat_theta_mean           =   1.7407032152268E-01
(PID.TID 0000.0001) %MON dynstat_theta_sd             =   2.3287572183778E-01
(PID.TID 0000.0001) %MON dynstat_theta_del2           =   1.4604198217213E-06
(PID.TID 0000.0001) %MON dynstat_salt_max             =   3.4777442714410E+01
(PID.TID 0000.0001) %MON dynstat_salt_min             =   2.9766698230167E+01
(PID.TID 0000.0001) %MON dynstat_salt_mean            =   3.4616487279314E+01
(PID.TID 0000.0001) %MON dynstat_salt_sd              =   5.8407978926004E-01
(PID.TID 0000.0001) %MON dynstat_salt_del2            =   1.6654309823937E-06
(PID.TID 0000.0001) %MON dynstat_sst_max              =   0.0000000000000E+00
(PID.TID 0000.0001) %MON dynstat_sst_min              =  -5.2720584539217E-01
(PID.TID 0000.0001) %MON dynstat_sst_mean             =  -4.5808586075303E-02
(PID.TID 0000.0001) %MON dynstat_sst_sd               =   9.0839661386917E-02
(PID.TID 0000.0001) %MON dynstat_sst_del2             =   8.3731190777048E-05
(PID.TID 0000.0001) %MON dynstat_sss_max              =   3.0529659954362E+01
(PID.TID 0000.0001) %MON dynstat_sss_min              =   0.0000000000000E+00
(PID.TID 0000.0001) %MON dynstat_sss_mean             =   7.2409631151474E+00
(PID.TID 0000.0001) %MON dynstat_sss_sd               =   1.2862561625110E+01
(PID.TID 0000.0001) %MON dynstat_sss_del2             =   7.0181812593752E-03
(PID.TID 0000.0001) %MON forcing_qnet_max             =   0.0000000000000E+00
(PID.TID 0000.0001) %MON forcing_qnet_min             =   0.0000000000000E+00
(PID.TID 0000.0001) %MON forcing_qnet_mean            =   0.0000000000000E+00
(PID.TID 0000.0001) %MON forcing_qnet_sd              =   0.0000000000000E+00
(PID.TID 0000.0001) %MON forcing_qnet_del2            =   0.0000000000000E+00
(PID.TID 0000.0001) %MON forcing_qsw_max              =   0.0000000000000E+00
(PID.TID 0000.0001) %MON forcing_qsw_min              =   0.0000000000000E+00
(PID.TID 0000.0001) %MON forcing_qsw_mean             =   0.0000000000000E+00
(PID.TID 0000.0001) %MON forcing_qsw_sd               =   0.0000000000000E+00
(PID.TID 0000.0001) %MON forcing_qsw_del2             =   0.0000000000000E+00
(PID.TID 0000.0001) %MON forcing_empmr_max            =   4.3632264488982E-05
(PID.TID 0000.0001) %MON forcing_empmr_min            =  -3.6195425118045E-04
(PID.TID 0000.0001) %MON forcing_empmr_mean           =  -3.7380881770919E-05
(PID.TID 0000.0001) %MON forcing_empmr_sd             =   5.4095778049249E-05
(PID.TID 0000.0001) %MON forcing_empmr_del2           =   1.8363846102068E-07
(PID.TID 0000.0001) %MON forcing_fu_max               =   0.0000000000000E+00
(PID.TID 0000.0001) %MON forcing_fu_min               =   0.0000000000000E+00
(PID.TID 0000.0001) %MON forcing_fu_mean              =   0.0000000000000E+00
(PID.TID 0000.0001) %MON forcing_fu_sd                =   0.0000000000000E+00
(PID.TID 0000.0001) %MON forcing_fu_del2              =   0.0000000000000E+00
(PID.TID 0000.0001) %MON forcing_fv_max               =   0.0000000000000E+00
(PID.TID 0000.0001) %MON forcing_fv_min               =   0.0000000000000E+00
(PID.TID 0000.0001) %MON forcing_fv_mean              =   0.0000000000000E+00
(PID.TID 0000.0001) %MON forcing_fv_sd                =   0.0000000000000E+00
(PID.TID 0000.0001) %MON forcing_fv_del2              =   0.0000000000000E+00
(PID.TID 0000.0001) %MON trAdv_CFL_u_max              =   9.7553491404615E-03
(PID.TID 0000.0001) %MON trAdv_CFL_v_max              =   2.2925367840640E-03
(PID.TID 0000.0001) %MON trAdv_CFL_w_max              =   4.0815604965404E-02
(PID.TID 0000.0001) %MON advcfl_uvel_max              =   9.7553491404793E-03
(PID.TID 0000.0001) %MON advcfl_vvel_max              =   2.2926452453668E-03
(PID.TID 0000.0001) %MON advcfl_wvel_max              =   4.0815604965404E-02
(PID.TID 0000.0001) %MON advcfl_W_hf_max              =   4.0815604965404E-02
(PID.TID 0000.0001) %MON pe_b_mean                    =   4.7073380346626E-04
(PID.TID 0000.0001) %MON ke_max                       =   1.9459045920088E-03
(PID.TID 0000.0001) %MON ke_mean                      =   3.4777079430835E-06
(PID.TID 0000.0001) %MON ke_vol                       =   1.7987028804191E+11
(PID.TID 0000.0001) %MON vort_r_min                   =  -3.8271313916799E-03
(PID.TID 0000.0001) %MON vort_r_max                   =   8.4041895209044E-04
(PID.TID 0000.0001) %MON vort_a_mean                  =   1.4389824107846E-04
(PID.TID 0000.0001) %MON vort_a_sd                    =   1.9043152452594E-05
(PID.TID 0000.0001) %MON vort_p_mean                  =   1.4952875999749E-04
(PID.TID 0000.0001) %MON vort_p_sd                    =   5.4676040156262E-05
(PID.TID 0000.0001) %MON surfExpan_theta_mean         =  -4.7100528220156E-06
(PID.TID 0000.0001) %MON surfExpan_salt_mean          =  -1.3033070785733E-05
(PID.TID 0000.0001) // =======================================================
(PID.TID 0000.0001) // End MONITOR dynamic field statistics
(PID.TID 0000.0001) // =======================================================
(PID.TID 0000.0001) // =======================================================
(PID.TID 0000.0001) // Begin OBCS MONITOR field statistics
(PID.TID 0000.0001) // =======================================================
(PID.TID 0000.0001) %MON obc_N_vVel_max               =   0.0000000000000E+00
(PID.TID 0000.0001) %MON obc_N_vVel_min               =   0.0000000000000E+00
(PID.TID 0000.0001) %MON obc_N_vVel_mean              =   0.0000000000000E+00
(PID.TID 0000.0001) %MON obc_N_vVel_sd                =   0.0000000000000E+00
(PID.TID 0000.0001) %MON obc_N_vVel_Int               =   0.0000000000000E+00
(PID.TID 0000.0001) // =======================================================
(PID.TID 0000.0001) // End OBCS MONITOR field statistics
(PID.TID 0000.0001) // =======================================================
 cg2d: Sum(rhs),rhsMax =  -2.14227381141493E+00  8.41967382735388E+00
(PID.TID 0000.0001)      cg2d_init_res =   3.55382713707060E-03
(PID.TID 0000.0001)      cg2d_iters(min,last) =      -1     158
(PID.TID 0000.0001)      cg2d_last_res =   9.88529217149389E-12
 SURF_ADJUSTMENT: Iter=    756010 Nb_pts,Vol=        12  1.77716841E+03
(PID.TID 0000.0001) // =======================================================
(PID.TID 0000.0001) // Begin MONITOR dynamic field statistics
(PID.TID 0000.0001) // =======================================================
(PID.TID 0000.0001) %MON time_tsnumber                =                756010
(PID.TID 0000.0001) %MON time_secondsf                =   3.0240400000000E+06
(PID.TID 0000.0001) %MON dynstat_eta_max              =   4.4585910490380E-01
(PID.TID 0000.0001) %MON dynstat_eta_min              =  -8.8820252084602E-01
(PID.TID 0000.0001) %MON dynstat_eta_mean             =   5.6471540045437E-03
(PID.TID 0000.0001) %MON dynstat_eta_sd               =   2.5784772591721E-01
(PID.TID 0000.0001) %MON dynstat_eta_del2             =   3.1842284931973E-04
(PID.TID 0000.0001) %MON dynstat_uvel_max             =   1.1123683565800E-02
(PID.TID 0000.0001) %MON dynstat_uvel_min             =  -3.9664138577932E-02
(PID.TID 0000.0001) %MON dynstat_uvel_mean            =   3.3776689375022E-06
(PID.TID 0000.0001) %MON dynstat_uvel_sd              =   1.6334127812853E-03
(PID.TID 0000.0001) %MON dynstat_uvel_del2            =   6.8715500027339E-08
(PID.TID 0000.0001) %MON dynstat_vvel_max             =   5.7201628449788E-02
(PID.TID 0000.0001) %MON dynstat_vvel_min             =  -1.2227378498049E-02
(PID.TID 0000.0001) %MON dynstat_vvel_mean            =   9.8861137959745E-05
(PID.TID 0000.0001) %MON dynstat_vvel_sd              =   2.0797074133900E-03
(PID.TID 0000.0001) %MON dynstat_vvel_del2            =   3.3883659979895E-08
(PID.TID 0000.0001) %MON dynstat_wvel_max             =   5.4531623044139E-03
(PID.TID 0000.0001) %MON dynstat_wvel_min             =  -1.1208774099449E-02
(PID.TID 0000.0001) %MON dynstat_wvel_mean            =   2.4668629446397E-06
(PID.TID 0000.0001) %MON dynstat_wvel_sd              =   3.2429731725361E-04
(PID.TID 0000.0001) %MON dynstat_wvel_del2            =   1.4970463052658E-07
(PID.TID 0000.0001) %MON dynstat_theta_max            =   2.9331144441664E-01
(PID.TID 0000.0001) %MON dynstat_theta_min            =  -2.2662879579407E+00
(PID.TID 0000.0001) %MON dynstat_theta_mean           =   1.7407031020999E-01
(PID.TID 0000.0001) %MON dynstat_theta_sd             =   2.3287571978617E-01
(PID.TID 0000.0001) %MON dynstat_theta_del2           =   1.4603723889459E-06
(PID.TID 0000.0001) %MON dynstat_salt_max             =   3.4777442714404E+01
(PID.TID 0000.0001) %MON dynstat_salt_min             =   2.9766698306648E+01
(PID.TID 0000.0001) %MON dynstat_salt_mean            =   3.4616487308013E+01
(PID.TID 0000.0001) %MON dynstat_salt_sd              =   5.8407957799189E-01
(PID.TID 0000.0001) %MON dynstat_salt_del2            =   1.6651507545143E-06
(PID.TID 0000.0001) %MON dynstat_sst_max              =   0.0000000000000E+00
(PID.TID 0000.0001) %MON dynstat_sst_min              =  -5.2718039811533E-01
(PID.TID 0000.0001) %MON dynstat_sst_mean             =  -4.5808589038561E-02
(PID.TID 0000.0001) %MON dynstat_sst_sd               =   9.0839655714678E-02
(PID.TID 0000.0001) %MON dynstat_sst_del2             =   8.3730742800261E-05
(PID.TID 0000.0001) %MON dynstat_sss_max              =   3.0529654424206E+01
(PID.TID 0000.0001) %MON dynstat_sss_min              =   0.0000000000000E+00
(PID.TID 0000.0001) %MON dynstat_sss_mean             =   7.2409631814497E+00
(PID.TID 0000.0001) %MON dynstat_sss_sd               =   1.2862561743259E+01
(PID.TID 0000.0001) %MON dynstat_sss_del2             =   7.0181812025120E-03
(PID.TID 0000.0001) %MON forcing_qnet_max             =   0.0000000000000E+00
(PID.TID 0000.0001) %MON forcing_qnet_min             =   0.0000000000000E+00
(PID.TID 0000.0001) %MON forcing_qnet_mean            =   0.0000000000000E+00
(PID.TID 0000.0001) %MON forcing_qnet_sd              =   0.0000000000000E+00
(PID.TID 0000.0001) %MON forcing_qnet_del2            =   0.0000000000000E+00
(PID.TID 0000.0001) %MON forcing_qsw_max              =   0.0000000000000E+00
(PID.TID 0000.0001) %MON forcing_qsw_min              =   0.0000000000000E+00
(PID.TID 0000.0001) %MON forcing_qsw_mean             =   0.0000000000000E+00
(PID.TID 0000.0001) %MON forcing_qsw_sd               =   0.0000000000000E+00
(PID.TID 0000.0001) %MON forcing_qsw_del2             =   0.0000000000000E+00
(PID.TID 0000.0001) %MON forcing_empmr_max            =   4.0755480074818E-05
(PID.TID 0000.0001) %MON forcing_empmr_min            =  -3.6195417379512E-04
(PID.TID 0000.0001) %MON forcing_empmr_mean           =  -3.7433518656828E-05
(PID.TID 0000.0001) %MON forcing_empmr_sd             =   5.4075855390735E-05
(PID.TID 0000.0001) %MON forcing_empmr_del2           =   1.8368411843035E-07
(PID.TID 0000.0001) %MON forcing_fu_max               =   0.0000000000000E+00
(PID.TID 0000.0001) %MON forcing_fu_min               =   0.0000000000000E+00
(PID.TID 0000.0001) %MON forcing_fu_mean              =   0.0000000000000E+00
(PID.TID 0000.0001) %MON forcing_fu_sd                =   0.0000000000000E+00
(PID.TID 0000.0001) %MON forcing_fu_del2              =   0.0000000000000E+00
(PID.TID 0000.0001) %MON forcing_fv_max               =   0.0000000000000E+00
(PID.TID 0000.0001) %MON forcing_fv_min               =   0.0000000000000E+00
(PID.TID 0000.0001) %MON forcing_fv_mean              =   0.0000000000000E+00
(PID.TID 0000.0001) %MON forcing_fv_sd                =   0.0000000000000E+00
(PID.TID 0000.0001) %MON forcing_fv_del2              =   0.0000000000000E+00
(PID.TID 0000.0001) %MON trAdv_CFL_u_max              =   9.7554044394228E-03
(PID.TID 0000.0001) %MON trAdv_CFL_v_max              =   2.2925362846019E-03
(PID.TID 0000.0001) %MON trAdv_CFL_w_max              =   4.4801942960005E-02
(PID.TID 0000.0001) %MON advcfl_uvel_max              =   9.7554044394406E-03
(PID.TID 0000.0001) %MON advcfl_vvel_max              =   2.2926447458811E-03
(PID.TID 0000.0001) %MON advcfl_wvel_max              =   4.4801942960005E-02
(PID.TID 0000.0001) %MON advcfl_W_hf_max              =   4.4801942960005E-02
(PID.TID 0000.0001) %MON pe_b_mean                    =   4.7094783073106E-04
(PID.TID 0000.0001) %MON ke_max                       =   1.9459037526747E-03
(PID.TID 0000.0001) %MON ke_mean                      =   3.4701393279058E-06
(PID.TID 0000.0001) %MON ke_vol                       =   1.7987028808211E+11
(PID.TID 0000.0001) %MON vort_r_min                   =  -3.8271305556588E-03
(PID.TID 0000.0001) %MON vort_r_max                   =   8.4069000242044E-04
(PID.TID 0000.0001) %MON vort_a_mean                  =   1.4389824107846E-04
(PID.TID 0000.0001) %MON vort_a_sd                    =   1.9045988432932E-05
(PID.TID 0000.0001) %MON vort_p_mean                  =   1.4952875981798E-04
(PID.TID 0000.0001) %MON vort_p_sd                    =   5.4653489164884E-05
(PID.TID 0000.0001) %MON surfExpan_theta_mean         =  -4.2357655236090E-06
(PID.TID 0000.0001) %MON surfExpan_salt_mean          =  -1.8686790498148E-05
(PID.TID 0000.0001) // =======================================================
(PID.TID 0000.0001) // End MONITOR dynamic field statistics
(PID.TID 0000.0001) // =======================================================
(PID.TID 0000.0001) // =======================================================
(PID.TID 0000.0001) // Begin OBCS MONITOR field statistics
(PID.TID 0000.0001) // =======================================================
(PID.TID 0000.0001) %MON obc_N_vVel_max               =   0.0000000000000E+00
(PID.TID 0000.0001) %MON obc_N_vVel_min               =   0.0000000000000E+00
(PID.TID 0000.0001) %MON obc_N_vVel_mean              =   0.0000000000000E+00
(PID.TID 0000.0001) %MON obc_N_vVel_sd                =   0.0000000000000E+00
(PID.TID 0000.0001) %MON obc_N_vVel_Int               =   0.0000000000000E+00
(PID.TID 0000.0001) // =======================================================
(PID.TID 0000.0001) // End OBCS MONITOR field statistics
(PID.TID 0000.0001) // =======================================================
 SURF_ADJUSTMENT: Iter=    756010 Nb_pts,Vol=        12  1.77717122E+03
 SURF_ADJUSTMENT: Iter=    756010 Nb_pts,Vol=        12  1.77716841E+03
 cg2d: Sum(rhs),rhsMax =  -2.14245497179353E+00  8.41917885173506E+00
(PID.TID 0000.0001)      cg2d_init_res =   3.22418346509385E-03
(PID.TID 0000.0001)      cg2d_iters(min,last) =      -1     161
(PID.TID 0000.0001)      cg2d_last_res =   8.97467382846138E-12
 SURF_ADJUSTMENT: Iter=    756011 Nb_pts,Vol=        12  1.77716559E+03
(PID.TID 0000.0001) // =======================================================
(PID.TID 0000.0001) // Begin MONITOR dynamic field statistics
(PID.TID 0000.0001) // =======================================================
(PID.TID 0000.0001) %MON time_tsnumber                =                756011
(PID.TID 0000.0001) %MON time_secondsf                =   3.0240440000000E+06
(PID.TID 0000.0001) %MON dynstat_eta_max              =   4.4585597371433E-01
(PID.TID 0000.0001) %MON dynstat_eta_min              =  -8.8787443209887E-01
(PID.TID 0000.0001) %MON dynstat_eta_mean             =   5.6472995406173E-03
(PID.TID 0000.0001) %MON dynstat_eta_sd               =   2.5790893436984E-01
(PID.TID 0000.0001) %MON dynstat_eta_del2             =   3.1840944711933E-04
(PID.TID 0000.0001) %MON dynstat_uvel_max             =   1.1123682108406E-02
(PID.TID 0000.0001) %MON dynstat_uvel_min             =  -3.9664695708415E-02
(PID.TID 0000.0001) %MON dynstat_uvel_mean            =   1.5655248923951E-06
(PID.TID 0000.0001) %MON dynstat_uvel_sd              =   1.6365327709855E-03
(PID.TID 0000.0001) %MON dynstat_uvel_del2            =   6.9073585919721E-08
(PID.TID 0000.0001) %MON dynstat_vvel_max             =   5.7201616261605E-02
(PID.TID 0000.0001) %MON dynstat_vvel_min             =  -1.3083116855181E-02
(PID.TID 0000.0001) %MON dynstat_vvel_mean            =   1.3123766798087E-04
(PID.TID 0000.0001) %MON dynstat_vvel_sd              =   2.0743719273444E-03
(PID.TID 0000.0001) %MON dynstat_vvel_del2            =   3.5434740223574E-08
(PID.TID 0000.0001) %MON dynstat_wvel_max             =   5.7959578273930E-03
(PID.TID 0000.0001) %MON dynstat_wvel_min             =  -1.2016713813540E-02
(PID.TID 0000.0001) %MON dynstat_wvel_mean            =   2.5334276477372E-06
(PID.TID 0000.0001) %MON dynstat_wvel_sd              =   3.3740439917348E-04
(PID.TID 0000.0001) %MON dynstat_wvel_del2            =   1.6150916198878E-07
(PID.TID 0000.0001) %MON dynstat_theta_max            =   2.9331144440875E-01
(PID.TID 0000.0001) %MON dynstat_theta_min            =  -2.2662881301520E+00
(PID.TID 0000.0001) %MON dynstat_theta_mean           =   1.7407029752959E-01
(PID.TID 0000.0001) %MON dynstat_theta_sd             =   2.3287572195657E-01
(PID.TID 0000.0001) %MON dynstat_theta_del2           =   1.4603327368036E-06
(PID.TID 0000.0001) %MON dynstat_salt_max             =   3.4777442714398E+01
(PID.TID 0000.0001) %MON dynstat_salt_min             =   2.9766698380559E+01
(PID.TID 0000.0001) %MON dynstat_salt_mean            =   3.4616487336452E+01
(PID.TID 0000.0001) %MON dynstat_salt_sd              =   5.8407936528224E-01
(PID.TID 0000.0001) %MON dynstat_salt_del2            =   1.6648735715690E-06
(PID.TID 0000.0001) %MON dynstat_sst_max              =   0.0000000000000E+00
(PID.TID 0000.0001) %MON dynstat_sst_min              =  -5.2715231602199E-01
(PID.TID 0000.0001) %MON dynstat_sst_mean             =  -4.5808597757611E-02
(PID.TID 0000.0001) %MON dynstat_sst_sd               =   9.0839662156762E-02
(PID.TID 0000.0001) %MON dynstat_sst_del2             =   8.3730252049368E-05
(PID.TID 0000.0001) %MON dynstat_sss_max              =   3.0529648044123E+01
(PID.TID 0000.0001) %MON dynstat_sss_min              =   0.0000000000000E+00
(PID.TID 0000.0001) %MON dynstat_sss_mean             =   7.2409632580356E+00
(PID.TID 0000.0001) %MON dynstat_sss_sd               =   1.2862561879587E+01
(PID.TID 0000.0001) %MON dynstat_sss_del2             =   7.0181811315845E-03
(PID.TID 0000.0001) %MON forcing_qnet_max             =   0.0000000000000E+00
(PID.TID 0000.0001) %MON forcing_qnet_min             =   0.0000000000000E+00
(PID.TID 0000.0001) %MON forcing_qnet_mean            =   0.0000000000000E+00
(PID.TID 0000.0001) %MON forcing_qnet_sd              =   0.0000000000000E+00
(PID.TID 0000.0001) %MON forcing_qnet_del2            =   0.0000000000000E+00
(PID.TID 0000.0001) %MON forcing_qsw_max              =   0.0000000000000E+00
(PID.TID 0000.0001) %MON forcing_qsw_min              =   0.0000000000000E+00
(PID.TID 0000.0001) %MON forcing_qsw_mean             =   0.0000000000000E+00
(PID.TID 0000.0001) %MON forcing_qsw_sd               =   0.0000000000000E+00
(PID.TID 0000.0001) %MON forcing_qsw_del2             =   0.0000000000000E+00
(PID.TID 0000.0001) %MON forcing_empmr_max            =   3.7983047943279E-05
(PID.TID 0000.0001) %MON forcing_empmr_min            =  -3.6195409718225E-04
(PID.TID 0000.0001) %MON forcing_empmr_mean           =  -3.7475538912824E-05
(PID.TID 0000.0001) %MON forcing_empmr_sd             =   5.4060858653968E-05
(PID.TID 0000.0001) %MON forcing_empmr_del2           =   1.8373269387752E-07
(PID.TID 0000.0001) %MON forcing_fu_max               =   0.0000000000000E+00
(PID.TID 0000.0001) %MON forcing_fu_min               =   0.0000000000000E+00
(PID.TID 0000.0001) %MON forcing_fu_mean              =   0.0000000000000E+00
(PID.TID 0000.0001) %MON forcing_fu_sd                =   0.0000000000000E+00
(PID.TID 0000.0001) %MON forcing_fu_del2              =   0.0000000000000E+00
(PID.TID 0000.0001) %MON forcing_fv_max               =   0.0000000000000E+00
(PID.TID 0000.0001) %MON forcing_fv_min               =   0.0000000000000E+00
(PID.TID 0000.0001) %MON forcing_fv_mean              =   0.0000000000000E+00
(PID.TID 0000.0001) %MON forcing_fv_sd                =   0.0000000000000E+00
(PID.TID 0000.0001) %MON forcing_fv_del2              =   0.0000000000000E+00
(PID.TID 0000.0001) %MON trAdv_CFL_u_max              =   9.7555414657994E-03
(PID.TID 0000.0001) %MON trAdv_CFL_v_max              =   2.2925357961219E-03
(PID.TID 0000.0001) %MON trAdv_CFL_w_max              =   4.8031312083218E-02
(PID.TID 0000.0001) %MON advcfl_uvel_max              =   9.7555414658172E-03
(PID.TID 0000.0001) %MON advcfl_vvel_max              =   2.2926442573780E-03
(PID.TID 0000.0001) %MON advcfl_wvel_max              =   4.8031312083218E-02
(PID.TID 0000.0001) %MON advcfl_W_hf_max              =   4.8031312083218E-02
(PID.TID 0000.0001) %MON pe_b_mean                    =   4.7117795656038E-04
(PID.TID 0000.0001) %MON ke_max                       =   1.9459029309603E-03
(PID.TID 0000.0001) %MON ke_mean                      =   3.4679048664036E-06
(PID.TID 0000.0001) %MON ke_vol                       =   1.7987028812236E+11
(PID.TID 0000.0001) %MON vort_r_min                   =  -3.8271297381096E-03
(PID.TID 0000.0001) %MON vort_r_max                   =   8.4120496300810E-04
(PID.TID 0000.0001) %MON vort_a_mean                  =   1.4389824107845E-04
(PID.TID 0000.0001) %MON vort_a_sd                    =   1.9050127172292E-05
(PID.TID 0000.0001) %MON vort_p_mean                  =   1.4952875962633E-04
(PID.TID 0000.0001) %MON vort_p_sd                    =   5.4637042628167E-05
(PID.TID 0000.0001) %MON surfExpan_theta_mean         =  -3.5429198306844E-06
(PID.TID 0000.0001) %MON surfExpan_salt_mean          =  -2.4299278016881E-05
(PID.TID 0000.0001) // =======================================================
(PID.TID 0000.0001) // End MONITOR dynamic field statistics
(PID.TID 0000.0001) // =======================================================
(PID.TID 0000.0001) // =======================================================
(PID.TID 0000.0001) // Begin OBCS MONITOR field statistics
(PID.TID 0000.0001) // =======================================================
(PID.TID 0000.0001) %MON obc_N_vVel_max               =   0.0000000000000E+00
(PID.TID 0000.0001) %MON obc_N_vVel_min               =   0.0000000000000E+00
(PID.TID 0000.0001) %MON obc_N_vVel_mean              =   0.0000000000000E+00
(PID.TID 0000.0001) %MON obc_N_vVel_sd                =   0.0000000000000E+00
(PID.TID 0000.0001) %MON obc_N_vVel_Int               =   0.0000000000000E+00
(PID.TID 0000.0001) // =======================================================
(PID.TID 0000.0001) // End OBCS MONITOR field statistics
(PID.TID 0000.0001) // =======================================================
 cg2d: Sum(rhs),rhsMax =  -2.14263343965600E+00  8.41869472273238E+00
(PID.TID 0000.0001)      cg2d_init_res =   3.00581058298137E-03
(PID.TID 0000.0001)      cg2d_iters(min,last) =      -1     162
(PID.TID 0000.0001)      cg2d_last_res =   9.72278696984685E-12
 SURF_ADJUSTMENT: Iter=    756012 Nb_pts,Vol=        12  1.77716278E+03
(PID.TID 0000.0001) // =======================================================
(PID.TID 0000.0001) // Begin MONITOR dynamic field statistics
(PID.TID 0000.0001) // =======================================================
(PID.TID 0000.0001) %MON time_tsnumber                =                756012
(PID.TID 0000.0001) %MON time_secondsf                =   3.0240480000000E+06
(PID.TID 0000.0001) %MON dynstat_eta_max              =   4.4584841507660E-01
(PID.TID 0000.0001) %MON dynstat_eta_min              =  -8.8764417148695E-01
(PID.TID 0000.0001) %MON dynstat_eta_mean             =   5.6474451999015E-03
(PID.TID 0000.0001) %MON dynstat_eta_sd               =   2.5797598568136E-01
(PID.TID 0000.0001) %MON dynstat_eta_del2             =   3.1839491339747E-04
(PID.TID 0000.0001) %MON dynstat_uvel_max             =   1.1123680650715E-02
(PID.TID 0000.0001) %MON dynstat_uvel_min             =  -3.9665922647473E-02
(PID.TID 0000.0001) %MON dynstat_uvel_mean            =  -8.8654769052777E-07
(PID.TID 0000.0001) %MON dynstat_uvel_sd              =   1.6395208304510E-03
(PID.TID 0000.0001) %MON dynstat_uvel_del2            =   6.9433406420445E-08
(PID.TID 0000.0001) %MON dynstat_vvel_max             =   5.7201604942455E-02
(PID.TID 0000.0001) %MON dynstat_vvel_min             =  -1.3907540159686E-02
(PID.TID 0000.0001) %MON dynstat_vvel_mean            =   1.5993301440261E-04
(PID.TID 0000.0001) %MON dynstat_vvel_sd              =   2.0705918908230E-03
(PID.TID 0000.0001) %MON dynstat_vvel_del2            =   3.6895336270941E-08
(PID.TID 0000.0001) %MON dynstat_wvel_max             =   5.9902737347637E-03
(PID.TID 0000.0001) %MON dynstat_wvel_min             =  -1.2639509354558E-02
(PID.TID 0000.0001) %MON dynstat_wvel_mean            =   2.6152467790027E-06
(PID.TID 0000.0001) %MON dynstat_wvel_sd              =   3.5262788449636E-04
(PID.TID 0000.0001) %MON dynstat_wvel_del2            =   1.7220633411144E-07
(PID.TID 0000.0001) %MON dynstat_theta_max            =   2.9331144440085E-01
(PID.TID 0000.0001) %MON dynstat_theta_min            =  -2.2662883023623E+00
(PID.TID 0000.0001) %MON dynstat_theta_mean           =   1.7407028396355E-01
(PID.TID 0000.0001) %MON dynstat_theta_sd             =   2.3287572609247E-01
(PID.TID 0000.0001) %MON dynstat_theta_del2           =   1.4603007332652E-06
(PID.TID 0000.0001) %MON dynstat_salt_max             =   3.4777442714393E+01
(PID.TID 0000.0001) %MON dynstat_salt_min             =   2.9766698448814E+01
(PID.TID 0000.0001) %MON dynstat_salt_mean            =   3.4616487367255E+01
(PID.TID 0000.0001) %MON dynstat_salt_sd              =   5.8407914480971E-01
(PID.TID 0000.0001) %MON dynstat_salt_del2            =   1.6646032135855E-06
(PID.TID 0000.0001) %MON dynstat_sst_max              =   0.0000000000000E+00
(PID.TID 0000.0001) %MON dynstat_sst_min              =  -5.2712155852467E-01
(PID.TID 0000.0001) %MON dynstat_sst_mean             =  -4.5808616576089E-02
(PID.TID 0000.0001) %MON dynstat_sst_sd               =   9.0839687904193E-02
(PID.TID 0000.0001) %MON dynstat_sst_del2             =   8.3729718091000E-05
(PID.TID 0000.0001) %MON dynstat_sss_max              =   3.0529640885219E+01
(PID.TID 0000.0001) %MON dynstat_sss_min              =   0.0000000000000E+00
(PID.TID 0000.0001) %MON dynstat_sss_mean             =   7.2409633484963E+00
(PID.TID 0000.0001) %MON dynstat_sss_sd               =   1.2862562040444E+01
(PID.TID 0000.0001) %MON dynstat_sss_del2             =   7.0181810470153E-03
(PID.TID 0000.0001) %MON forcing_qnet_max             =   0.0000000000000E+00
(PID.TID 0000.0001) %MON forcing_qnet_min             =   0.0000000000000E+00
(PID.TID 0000.0001) %MON forcing_qnet_mean            =   0.0000000000000E+00
(PID.TID 0000.0001) %MON forcing_qnet_sd              =   0.0000000000000E+00
(PID.TID 0000.0001) %MON forcing_qnet_del2            =   0.0000000000000E+00
(PID.TID 0000.0001) %MON forcing_qsw_max              =   0.0000000000000E+00
(PID.TID 0000.0001) %MON forcing_qsw_min              =   0.0000000000000E+00
(PID.TID 0000.0001) %MON forcing_qsw_mean             =   0.0000000000000E+00
(PID.TID 0000.0001) %MON forcing_qsw_sd               =   0.0000000000000E+00
(PID.TID 0000.0001) %MON forcing_qsw_del2             =   0.0000000000000E+00
(PID.TID 0000.0001) %MON forcing_empmr_max            =   3.5737811243912E-05
(PID.TID 0000.0001) %MON forcing_empmr_min            =  -3.6195402322433E-04
(PID.TID 0000.0001) %MON forcing_empmr_mean           =  -3.7507265706244E-05
(PID.TID 0000.0001) %MON forcing_empmr_sd             =   5.4051406486139E-05
(PID.TID 0000.0001) %MON forcing_empmr_del2           =   1.8378444017148E-07
(PID.TID 0000.0001) %MON forcing_fu_max               =   0.0000000000000E+00
(PID.TID 0000.0001) %MON forcing_fu_min               =   0.0000000000000E+00
(PID.TID 0000.0001) %MON forcing_fu_mean              =   0.0000000000000E+00
(PID.TID 0000.0001) %MON forcing_fu_sd                =   0.0000000000000E+00
(PID.TID 0000.0001) %MON forcing_fu_del2              =   0.0000000000000E+00
(PID.TID 0000.0001) %MON forcing_fv_max               =   0.0000000000000E+00
(PID.TID 0000.0001) %MON forcing_fv_min               =   0.0000000000000E+00
(PID.TID 0000.0001) %MON forcing_fv_mean              =   0.0000000000000E+00
(PID.TID 0000.0001) %MON forcing_fv_sd                =   0.0000000000000E+00
(PID.TID 0000.0001) %MON forcing_fv_del2              =   0.0000000000000E+00
(PID.TID 0000.0001) %MON trAdv_CFL_u_max              =   9.7558432317563E-03
(PID.TID 0000.0001) %MON trAdv_CFL_v_max              =   2.2925353424712E-03
(PID.TID 0000.0001) %MON trAdv_CFL_w_max              =   5.0520652135650E-02
(PID.TID 0000.0001) %MON advcfl_uvel_max              =   9.7558432317741E-03
(PID.TID 0000.0001) %MON advcfl_vvel_max              =   2.2926438037058E-03
(PID.TID 0000.0001) %MON advcfl_wvel_max              =   5.0520652135650E-02
(PID.TID 0000.0001) %MON advcfl_W_hf_max              =   5.0520652135650E-02
(PID.TID 0000.0001) %MON pe_b_mean                    =   4.7142904293889E-04
(PID.TID 0000.0001) %MON ke_max                       =   1.9459021652807E-03
(PID.TID 0000.0001) %MON ke_mean                      =   3.4691353333850E-06
(PID.TID 0000.0001) %MON ke_vol                       =   1.7987028816266E+11
(PID.TID 0000.0001) %MON vort_r_min                   =  -3.8271289791424E-03
(PID.TID 0000.0001) %MON vort_r_max                   =   8.4208768156926E-04
(PID.TID 0000.0001) %MON vort_a_mean                  =   1.4389824107846E-04
(PID.TID 0000.0001) %MON vort_a_sd                    =   1.9055337008186E-05
(PID.TID 0000.0001) %MON vort_p_mean                  =   1.4952875950317E-04
(PID.TID 0000.0001) %MON vort_p_sd                    =   5.4627514457431E-05
(PID.TID 0000.0001) %MON surfExpan_theta_mean         =  -2.7089172846493E-06
(PID.TID 0000.0001) %MON surfExpan_salt_mean          =  -3.0296570089887E-05
(PID.TID 0000.0001) // =======================================================
(PID.TID 0000.0001) // End MONITOR dynamic field statistics
(PID.TID 0000.0001) // =======================================================
(PID.TID 0000.0001) // =======================================================
(PID.TID 0000.0001) // Begin OBCS MONITOR field statistics
(PID.TID 0000.0001) // =======================================================
(PID.TID 0000.0001) %MON obc_N_vVel_max               =   0.0000000000000E+00
(PID.TID 0000.0001) %MON obc_N_vVel_min               =   0.0000000000000E+00
(PID.TID 0000.0001) %MON obc_N_vVel_mean              =   0.0000000000000E+00
(PID.TID 0000.0001) %MON obc_N_vVel_sd                =   0.0000000000000E+00
(PID.TID 0000.0001) %MON obc_N_vVel_Int               =   0.0000000000000E+00
(PID.TID 0000.0001) // =======================================================
(PID.TID 0000.0001) // End OBCS MONITOR field statistics
(PID.TID 0000.0001) // =======================================================
 SURF_ADJUSTMENT: Iter=    756012 Nb_pts,Vol=        12  1.77716559E+03
 SURF_ADJUSTMENT: Iter=    756012 Nb_pts,Vol=        12  1.77716278E+03
 cg2d: Sum(rhs),rhsMax =  -2.14278724924550E+00  8.41830767992216E+00
(PID.TID 0000.0001)      cg2d_init_res =   2.83377345787660E-03
(PID.TID 0000.0001)      cg2d_iters(min,last) =      -1     163
(PID.TID 0000.0001)      cg2d_last_res =   9.98971694910718E-12
 SURF_ADJUSTMENT: Iter=    756013 Nb_pts,Vol=        12  1.77715996E+03
(PID.TID 0000.0001) // =======================================================
(PID.TID 0000.0001) // Begin MONITOR dynamic field statistics
(PID.TID 0000.0001) // =======================================================
(PID.TID 0000.0001) %MON time_tsnumber                =                756013
(PID.TID 0000.0001) %MON time_secondsf                =   3.0240520000000E+06
(PID.TID 0000.0001) %MON dynstat_eta_max              =   4.4583195523209E-01
(PID.TID 0000.0001) %MON dynstat_eta_min              =  -8.8756056306811E-01
(PID.TID 0000.0001) %MON dynstat_eta_mean             =   5.6475909480130E-03
(PID.TID 0000.0001) %MON dynstat_eta_sd               =   2.5805087821841E-01
(PID.TID 0000.0001) %MON dynstat_eta_del2             =   3.1837936535600E-04
(PID.TID 0000.0001) %MON dynstat_uvel_max             =   1.1123679192556E-02
(PID.TID 0000.0001) %MON dynstat_uvel_min             =  -3.9668373217074E-02
(PID.TID 0000.0001) %MON dynstat_uvel_mean            =  -3.8417081589874E-06
(PID.TID 0000.0001) %MON dynstat_uvel_sd              =   1.6424471122293E-03
(PID.TID 0000.0001) %MON dynstat_uvel_del2            =   6.9787093642545E-08
(PID.TID 0000.0001) %MON dynstat_vvel_max             =   5.7201596141361E-02
(PID.TID 0000.0001) %MON dynstat_vvel_min             =  -1.4694518289040E-02
(PID.TID 0000.0001) %MON dynstat_vvel_mean            =   1.8336862761307E-04
(PID.TID 0000.0001) %MON dynstat_vvel_sd              =   2.0677263146011E-03
(PID.TID 0000.0001) %MON dynstat_vvel_del2            =   3.8244851746367E-08
(PID.TID 0000.0001) %MON dynstat_wvel_max             =   6.1084393837047E-03
(PID.TID 0000.0001) %MON dynstat_wvel_min             =  -1.3107266190882E-02
(PID.TID 0000.0001) %MON dynstat_wvel_mean            =   2.7471430478902E-06
(PID.TID 0000.0001) %MON dynstat_wvel_sd              =   3.6761588963262E-04
(PID.TID 0000.0001) %MON dynstat_wvel_del2            =   1.8175838563575E-07
(PID.TID 0000.0001) %MON dynstat_theta_max            =   2.9331144439296E-01
(PID.TID 0000.0001) %MON dynstat_theta_min            =  -2.2662884745716E+00
(PID.TID 0000.0001) %MON dynstat_theta_mean           =   1.7407027022780E-01
(PID.TID 0000.0001) %MON dynstat_theta_sd             =   2.3287572987963E-01
(PID.TID 0000.0001) %MON dynstat_theta_del2           =   1.4602751363944E-06
(PID.TID 0000.0001) %MON dynstat_salt_max             =   3.4777442714387E+01
(PID.TID 0000.0001) %MON dynstat_salt_min             =   2.9766698505702E+01
(PID.TID 0000.0001) %MON dynstat_salt_mean            =   3.4616487400588E+01
(PID.TID 0000.0001) %MON dynstat_salt_sd              =   5.8407892079817E-01
(PID.TID 0000.0001) %MON dynstat_salt_del2            =   1.6643412549909E-06
(PID.TID 0000.0001) %MON dynstat_sst_max              =   0.0000000000000E+00
(PID.TID 0000.0001) %MON dynstat_sst_min              =  -5.2708834398145E-01
(PID.TID 0000.0001) %MON dynstat_sst_mean             =  -4.5808645722522E-02
(PID.TID 0000.0001) %MON dynstat_sst_sd               =   9.0839731293313E-02
(PID.TID 0000.0001) %MON dynstat_sst_del2             =   8.3729142160662E-05
(PID.TID 0000.0001) %MON dynstat_sss_max              =   3.0529633014457E+01
(PID.TID 0000.0001) %MON dynstat_sss_min              =   0.0000000000000E+00
(PID.TID 0000.0001) %MON dynstat_sss_mean             =   7.2409634534494E+00
(PID.TID 0000.0001) %MON dynstat_sss_sd               =   1.2862562226919E+01
(PID.TID 0000.0001) %MON dynstat_sss_del2             =   7.0181809491986E-03
(PID.TID 0000.0001) %MON forcing_qnet_max             =   0.0000000000000E+00
(PID.TID 0000.0001) %MON forcing_qnet_min             =   0.0000000000000E+00
(PID.TID 0000.0001) %MON forcing_qnet_mean            =   0.0000000000000E+00
(PID.TID 0000.0001) %MON forcing_qnet_sd              =   0.0000000000000E+00
(PID.TID 0000.0001) %MON forcing_qnet_del2            =   0.0000000000000E+00
(PID.TID 0000.0001) %MON forcing_qsw_max              =   0.0000000000000E+00
(PID.TID 0000.0001) %MON forcing_qsw_min              =   0.0000000000000E+00
(PID.TID 0000.0001) %MON forcing_qsw_mean             =   0.0000000000000E+00
(PID.TID 0000.0001) %MON forcing_qsw_sd               =   0.0000000000000E+00
(PID.TID 0000.0001) %MON forcing_qsw_del2             =   0.0000000000000E+00
(PID.TID 0000.0001) %MON forcing_empmr_max            =   3.3414794549335E-05
(PID.TID 0000.0001) %MON forcing_empmr_min            =  -3.6195395753032E-04
(PID.TID 0000.0001) %MON forcing_empmr_mean           =  -3.7530138691353E-05
(PID.TID 0000.0001) %MON forcing_empmr_sd             =   5.4047256624990E-05
(PID.TID 0000.0001) %MON forcing_empmr_del2           =   1.8383963910681E-07
(PID.TID 0000.0001) %MON forcing_fu_max               =   0.0000000000000E+00
(PID.TID 0000.0001) %MON forcing_fu_min               =   0.0000000000000E+00
(PID.TID 0000.0001) %MON forcing_fu_mean              =   0.0000000000000E+00
(PID.TID 0000.0001) %MON forcing_fu_sd                =   0.0000000000000E+00
(PID.TID 0000.0001) %MON forcing_fu_del2              =   0.0000000000000E+00
(PID.TID 0000.0001) %MON forcing_fv_max               =   0.0000000000000E+00
(PID.TID 0000.0001) %MON forcing_fv_min               =   0.0000000000000E+00
(PID.TID 0000.0001) %MON forcing_fv_mean              =   0.0000000000000E+00
(PID.TID 0000.0001) %MON forcing_fv_sd                =   0.0000000000000E+00
(PID.TID 0000.0001) %MON forcing_fv_del2              =   0.0000000000000E+00
(PID.TID 0000.0001) %MON trAdv_CFL_u_max              =   9.7564459499399E-03
(PID.TID 0000.0001) %MON trAdv_CFL_v_max              =   2.2925349897395E-03
(PID.TID 0000.0001) %MON trAdv_CFL_w_max              =   5.2390295944529E-02
(PID.TID 0000.0001) %MON advcfl_uvel_max              =   9.7564459499578E-03
(PID.TID 0000.0001) %MON advcfl_vvel_max              =   2.2926434509574E-03
(PID.TID 0000.0001) %MON advcfl_wvel_max              =   5.2390295944529E-02
(PID.TID 0000.0001) %MON advcfl_W_hf_max              =   5.2390295944529E-02
(PID.TID 0000.0001) %MON pe_b_mean                    =   4.7170836885531E-04
(PID.TID 0000.0001) %MON ke_max                       =   1.9459015624161E-03
(PID.TID 0000.0001) %MON ke_mean                      =   3.4720153112903E-06
(PID.TID 0000.0001) %MON ke_vol                       =   1.7987028820299E+11
(PID.TID 0000.0001) %MON vort_r_min                   =  -3.8271283899146E-03
(PID.TID 0000.0001) %MON vort_r_max                   =   8.4346291981850E-04
(PID.TID 0000.0001) %MON vort_a_mean                  =   1.4389824107845E-04
(PID.TID 0000.0001) %MON vort_a_sd                    =   1.9061446158339E-05
(PID.TID 0000.0001) %MON vort_p_mean                  =   1.4952875939055E-04
(PID.TID 0000.0001) %MON vort_p_sd                    =   5.4624444911894E-05
(PID.TID 0000.0001) %MON surfExpan_theta_mean         =  -1.8492590665655E-06
(PID.TID 0000.0001) %MON surfExpan_salt_mean          =  -3.6705522540666E-05
(PID.TID 0000.0001) // =======================================================
(PID.TID 0000.0001) // End MONITOR dynamic field statistics
(PID.TID 0000.0001) // =======================================================
(PID.TID 0000.0001) // =======================================================
(PID.TID 0000.0001) // Begin OBCS MONITOR field statistics
(PID.TID 0000.0001) // =======================================================
(PID.TID 0000.0001) %MON obc_N_vVel_max               =   0.0000000000000E+00
(PID.TID 0000.0001) %MON obc_N_vVel_min               =   0.0000000000000E+00
(PID.TID 0000.0001) %MON obc_N_vVel_mean              =   0.0000000000000E+00
(PID.TID 0000.0001) %MON obc_N_vVel_sd                =   0.0000000000000E+00
(PID.TID 0000.0001) %MON obc_N_vVel_Int               =   0.0000000000000E+00
(PID.TID 0000.0001) // =======================================================
(PID.TID 0000.0001) // End OBCS MONITOR field statistics
(PID.TID 0000.0001) // =======================================================
 cg2d: Sum(rhs),rhsMax =  -2.14290700053295E+00  8.41805457341379E+00
(PID.TID 0000.0001)      cg2d_init_res =   2.67319986517019E-03
(PID.TID 0000.0001)      cg2d_iters(min,last) =      -1     164
(PID.TID 0000.0001)      cg2d_last_res =   9.42775376984557E-12
 SURF_ADJUSTMENT: Iter=    756014 Nb_pts,Vol=        12  1.77715714E+03
(PID.TID 0000.0001) // =======================================================
(PID.TID 0000.0001) // Begin MONITOR dynamic field statistics
(PID.TID 0000.0001) // =======================================================
(PID.TID 0000.0001) %MON time_tsnumber                =                756014
(PID.TID 0000.0001) %MON time_secondsf                =   3.0240560000000E+06
(PID.TID 0000.0001) %MON dynstat_eta_max              =   4.4579906210630E-01
(PID.TID 0000.0001) %MON dynstat_eta_min              =  -8.8756715318436E-01
(PID.TID 0000.0001) %MON dynstat_eta_mean             =   5.6477367568290E-03
(PID.TID 0000.0001) %MON dynstat_eta_sd               =   2.5813479962242E-01
(PID.TID 0000.0001) %MON dynstat_eta_del2             =   3.1836290067071E-04
(PID.TID 0000.0001) %MON dynstat_uvel_max             =   1.1258723907419E-02
(PID.TID 0000.0001) %MON dynstat_uvel_min             =  -3.9672859422475E-02
(PID.TID 0000.0001) %MON dynstat_uvel_mean            =  -7.2363042964524E-06
(PID.TID 0000.0001) %MON dynstat_uvel_sd              =   1.6454402093473E-03
(PID.TID 0000.0001) %MON dynstat_uvel_del2            =   7.0127613886814E-08
(PID.TID 0000.0001) %MON dynstat_vvel_max             =   5.7201594053359E-02
(PID.TID 0000.0001) %MON dynstat_vvel_min             =  -1.5435868050037E-02
(PID.TID 0000.0001) %MON dynstat_vvel_mean            =   2.0074288034993E-04
(PID.TID 0000.0001) %MON dynstat_vvel_sd              =   2.0652965874870E-03
(PID.TID 0000.0001) %MON dynstat_vvel_del2            =   3.9468055565555E-08
(PID.TID 0000.0001) %MON dynstat_wvel_max             =   6.4439375976588E-03
(PID.TID 0000.0001) %MON dynstat_wvel_min             =  -1.3458705180063E-02
(PID.TID 0000.0001) %MON dynstat_wvel_mean            =   2.9313320840597E-06
(PID.TID 0000.0001) %MON dynstat_wvel_sd              =   3.8125370596455E-04
(PID.TID 0000.0001) %MON dynstat_wvel_del2            =   1.9013557415110E-07
(PID.TID 0000.0001) %MON dynstat_theta_max            =   2.9331144438507E-01
(PID.TID 0000.0001) %MON dynstat_theta_min            =  -2.2662886467800E+00
(PID.TID 0000.0001) %MON dynstat_theta_mean           =   1.7407025705924E-01
(PID.TID 0000.0001) %MON dynstat_theta_sd             =   2.3287573150187E-01
(PID.TID 0000.0001) %MON dynstat_theta_del2           =   1.4602539554007E-06
(PID.TID 0000.0001) %MON dynstat_salt_max             =   3.4777442714381E+01
(PID.TID 0000.0001) %MON dynstat_salt_min             =   2.9766698541618E+01
(PID.TID 0000.0001) %MON dynstat_salt_mean            =   3.4616487434074E+01
(PID.TID 0000.0001) %MON dynstat_salt_sd              =   5.8407870730835E-01
(PID.TID 0000.0001) %MON dynstat_salt_del2            =   1.6640882543908E-06
(PID.TID 0000.0001) %MON dynstat_sst_max              =   0.0000000000000E+00
(PID.TID 0000.0001) %MON dynstat_sst_min              =  -5.2705291095319E-01
(PID.TID 0000.0001) %MON dynstat_sst_mean             =  -4.5808683354921E-02
(PID.TID 0000.0001) %MON dynstat_sst_sd               =   9.0839786975193E-02
(PID.TID 0000.0001) %MON dynstat_sst_del2             =   8.3728525499576E-05
(PID.TID 0000.0001) %MON dynstat_sss_max              =   3.0529624496341E+01
(PID.TID 0000.0001) %MON dynstat_sss_min              =   0.0000000000000E+00
(PID.TID 0000.0001) %MON dynstat_sss_mean             =   7.2409635717053E+00
(PID.TID 0000.0001) %MON dynstat_sss_sd               =   1.2862562436903E+01
(PID.TID 0000.0001) %MON dynstat_sss_del2             =   7.0181808384584E-03
(PID.TID 0000.0001) %MON forcing_qnet_max             =   0.0000000000000E+00
(PID.TID 0000.0001) %MON forcing_qnet_min             =   0.0000000000000E+00
(PID.TID 0000.0001) %MON forcing_qnet_mean            =   0.0000000000000E+00
(PID.TID 0000.0001) %MON forcing_qnet_sd              =   0.0000000000000E+00
(PID.TID 0000.0001) %MON forcing_qnet_del2            =   0.0000000000000E+00
(PID.TID 0000.0001) %MON forcing_qsw_max              =   0.0000000000000E+00
(PID.TID 0000.0001) %MON forcing_qsw_min              =   0.0000000000000E+00
(PID.TID 0000.0001) %MON forcing_qsw_mean             =   0.0000000000000E+00
(PID.TID 0000.0001) %MON forcing_qsw_sd               =   0.0000000000000E+00
(PID.TID 0000.0001) %MON forcing_qsw_del2             =   0.0000000000000E+00
(PID.TID 0000.0001) %MON forcing_empmr_max            =   3.1006664059608E-05
(PID.TID 0000.0001) %MON forcing_empmr_min            =  -3.6195391534155E-04
(PID.TID 0000.0001) %MON forcing_empmr_mean           =  -3.7545770134269E-05
(PID.TID 0000.0001) %MON forcing_empmr_sd             =   5.4047806106693E-05
(PID.TID 0000.0001) %MON forcing_empmr_del2           =   1.8389801507603E-07
(PID.TID 0000.0001) %MON forcing_fu_max               =   0.0000000000000E+00
(PID.TID 0000.0001) %MON forcing_fu_min               =   0.0000000000000E+00
(PID.TID 0000.0001) %MON forcing_fu_mean              =   0.0000000000000E+00
(PID.TID 0000.0001) %MON forcing_fu_sd                =   0.0000000000000E+00
(PID.TID 0000.0001) %MON forcing_fu_del2              =   0.0000000000000E+00
(PID.TID 0000.0001) %MON forcing_fv_max               =   0.0000000000000E+00
(PID.TID 0000.0001) %MON forcing_fv_min               =   0.0000000000000E+00
(PID.TID 0000.0001) %MON forcing_fv_mean              =   0.0000000000000E+00
(PID.TID 0000.0001) %MON forcing_fv_sd                =   0.0000000000000E+00
(PID.TID 0000.0001) %MON forcing_fv_del2              =   0.0000000000000E+00
(PID.TID 0000.0001) %MON trAdv_CFL_u_max              =   9.7575493332392E-03
(PID.TID 0000.0001) %MON trAdv_CFL_v_max              =   2.2925349060562E-03
(PID.TID 0000.0001) %MON trAdv_CFL_w_max              =   5.3795012411067E-02
(PID.TID 0000.0001) %MON advcfl_uvel_max              =   9.7575493332570E-03
(PID.TID 0000.0001) %MON advcfl_vvel_max              =   2.2926433672702E-03
(PID.TID 0000.0001) %MON advcfl_wvel_max              =   5.3795012411067E-02
(PID.TID 0000.0001) %MON advcfl_W_hf_max              =   5.3795012411067E-02
(PID.TID 0000.0001) %MON pe_b_mean                    =   4.7202137692158E-04
(PID.TID 0000.0001) %MON ke_max                       =   1.9459013948464E-03
(PID.TID 0000.0001) %MON ke_mean                      =   3.4752448022846E-06
(PID.TID 0000.0001) %MON ke_vol                       =   1.7987028824335E+11
(PID.TID 0000.0001) %MON vort_r_min                   =  -3.8271282531966E-03
(PID.TID 0000.0001) %MON vort_r_max                   =   8.4542111254112E-04
(PID.TID 0000.0001) %MON vort_a_mean                  =   1.4389824107845E-04
(PID.TID 0000.0001) %MON vort_a_sd                    =   1.9068409611489E-05
(PID.TID 0000.0001) %MON vort_p_mean                  =   1.4952875921921E-04
(PID.TID 0000.0001) %MON vort_p_sd                    =   5.4626697882374E-05
(PID.TID 0000.0001) %MON surfExpan_theta_mean         =  -1.0829892397271E-06
(PID.TID 0000.0001) %MON surfExpan_salt_mean          =  -4.3140476849398E-05
(PID.TID 0000.0001) // =======================================================
(PID.TID 0000.0001) // End MONITOR dynamic field statistics
(PID.TID 0000.0001) // =======================================================
(PID.TID 0000.0001) // =======================================================
(PID.TID 0000.0001) // Begin OBCS MONITOR field statistics
(PID.TID 0000.0001) // =======================================================
(PID.TID 0000.0001) %MON obc_N_vVel_max               =   0.0000000000000E+00
(PID.TID 0000.0001) %MON obc_N_vVel_min               =   0.0000000000000E+00
(PID.TID 0000.0001) %MON obc_N_vVel_mean              =   0.0000000000000E+00
(PID.TID 0000.0001) %MON obc_N_vVel_sd                =   0.0000000000000E+00
(PID.TID 0000.0001) %MON obc_N_vVel_Int               =   0.0000000000000E+00
(PID.TID 0000.0001) // =======================================================
(PID.TID 0000.0001) // End OBCS MONITOR field statistics
(PID.TID 0000.0001) // =======================================================
 SURF_ADJUSTMENT: Iter=    756014 Nb_pts,Vol=        12  1.77715996E+03
 SURF_ADJUSTMENT: Iter=    756014 Nb_pts,Vol=        12  1.77715714E+03
 cg2d: Sum(rhs),rhsMax =  -2.14299650653330E+00  8.41792036778878E+00
(PID.TID 0000.0001)      cg2d_init_res =   2.51887782821843E-03
(PID.TID 0000.0001)      cg2d_iters(min,last) =      -1     164
(PID.TID 0000.0001)      cg2d_last_res =   9.74790345040630E-12
 SURF_ADJUSTMENT: Iter=    756015 Nb_pts,Vol=        12  1.77715433E+03
(PID.TID 0000.0001) // =======================================================
(PID.TID 0000.0001) // Begin MONITOR dynamic field statistics
(PID.TID 0000.0001) // =======================================================
(PID.TID 0000.0001) %MON time_tsnumber                =                756015
(PID.TID 0000.0001) %MON time_secondsf                =   3.0240600000000E+06
(PID.TID 0000.0001) %MON dynstat_eta_max              =   4.4573998548528E-01
(PID.TID 0000.0001) %MON dynstat_eta_min              =  -8.8757981664362E-01
(PID.TID 0000.0001) %MON dynstat_eta_mean             =   5.6478826109595E-03
(PID.TID 0000.0001) %MON dynstat_eta_sd               =   2.5822761747306E-01
(PID.TID 0000.0001) %MON dynstat_eta_del2             =   3.1834561169570E-04
(PID.TID 0000.0001) %MON dynstat_uvel_max             =   1.1773268158071E-02
(PID.TID 0000.0001) %MON dynstat_uvel_min             =  -3.9680438985363E-02
(PID.TID 0000.0001) %MON dynstat_uvel_mean            =  -1.1102864342690E-05
(PID.TID 0000.0001) %MON dynstat_uvel_sd              =   1.6485178170323E-03
(PID.TID 0000.0001) %MON dynstat_uvel_del2            =   7.0449698053048E-08
(PID.TID 0000.0001) %MON dynstat_vvel_max             =   5.7201608526389E-02
(PID.TID 0000.0001) %MON dynstat_vvel_min             =  -1.6127070173710E-02
(PID.TID 0000.0001) %MON dynstat_vvel_mean            =   2.1186077627107E-04
(PID.TID 0000.0001) %MON dynstat_vvel_sd              =   2.0630889614956E-03
(PID.TID 0000.0001) %MON dynstat_vvel_del2            =   4.0554344732554E-08
(PID.TID 0000.0001) %MON dynstat_wvel_max             =   6.7257285805737E-03
(PID.TID 0000.0001) %MON dynstat_wvel_min             =  -1.3727729169064E-02
(PID.TID 0000.0001) %MON dynstat_wvel_mean            =   3.1468541916623E-06
(PID.TID 0000.0001) %MON dynstat_wvel_sd              =   3.9329495640282E-04
(PID.TID 0000.0001) %MON dynstat_wvel_del2            =   1.9731980806517E-07
(PID.TID 0000.0001) %MON dynstat_theta_max            =   2.9331144437717E-01
(PID.TID 0000.0001) %MON dynstat_theta_min            =  -2.2662888189873E+00
(PID.TID 0000.0001) %MON dynstat_theta_mean           =   1.7407024507097E-01
(PID.TID 0000.0001) %MON dynstat_theta_sd             =   2.3287572982895E-01
(PID.TID 0000.0001) %MON dynstat_theta_del2           =   1.4602353315959E-06
(PID.TID 0000.0001) %MON dynstat_salt_max             =   3.4777442714375E+01
(PID.TID 0000.0001) %MON dynstat_salt_min             =   2.9766698544945E+01
(PID.TID 0000.0001) %MON dynstat_salt_mean            =   3.4616487463808E+01
(PID.TID 0000.0001) %MON dynstat_salt_sd              =   5.8407852327225E-01
(PID.TID 0000.0001) %MON dynstat_salt_del2            =   1.6638447598816E-06
(PID.TID 0000.0001) %MON dynstat_sst_max              =   0.0000000000000E+00
(PID.TID 0000.0001) %MON dynstat_sst_min              =  -5.2701548818255E-01
(PID.TID 0000.0001) %MON dynstat_sst_mean             =  -4.5808727017681E-02
(PID.TID 0000.0001) %MON dynstat_sst_sd               =   9.0839849363371E-02
(PID.TID 0000.0001) %MON dynstat_sst_del2             =   8.3727870782380E-05
(PID.TID 0000.0001) %MON dynstat_sss_max              =   3.0529615392930E+01
(PID.TID 0000.0001) %MON dynstat_sss_min              =   0.0000000000000E+00
(PID.TID 0000.0001) %MON dynstat_sss_mean             =   7.2409637012584E+00
(PID.TID 0000.0001) %MON dynstat_sss_sd               =   1.2862562666862E+01
(PID.TID 0000.0001) %MON dynstat_sss_del2             =   7.0181807155617E-03
(PID.TID 0000.0001) %MON forcing_qnet_max             =   0.0000000000000E+00
(PID.TID 0000.0001) %MON forcing_qnet_min             =   0.0000000000000E+00
(PID.TID 0000.0001) %MON forcing_qnet_mean            =   0.0000000000000E+00
(PID.TID 0000.0001) %MON forcing_qnet_sd              =   0.0000000000000E+00
(PID.TID 0000.0001) %MON forcing_qnet_del2            =   0.0000000000000E+00
(PID.TID 0000.0001) %MON forcing_qsw_max              =   0.0000000000000E+00
(PID.TID 0000.0001) %MON forcing_qsw_min              =   0.0000000000000E+00
(PID.TID 0000.0001) %MON forcing_qsw_mean             =   0.0000000000000E+00
(PID.TID 0000.0001) %MON forcing_qsw_sd               =   0.0000000000000E+00
(PID.TID 0000.0001) %MON forcing_qsw_del2             =   0.0000000000000E+00
(PID.TID 0000.0001) %MON forcing_empmr_max            =   2.8536166673144E-05
(PID.TID 0000.0001) %MON forcing_empmr_min            =  -3.6195393466906E-04
(PID.TID 0000.0001) %MON forcing_empmr_mean           =  -3.7557438613930E-05
(PID.TID 0000.0001) %MON forcing_empmr_sd             =   5.4051343954579E-05
(PID.TID 0000.0001) %MON forcing_empmr_del2           =   1.8395961007903E-07
(PID.TID 0000.0001) %MON forcing_fu_max               =   0.0000000000000E+00
(PID.TID 0000.0001) %MON forcing_fu_min               =   0.0000000000000E+00
(PID.TID 0000.0001) %MON forcing_fu_mean              =   0.0000000000000E+00
(PID.TID 0000.0001) %MON forcing_fu_sd                =   0.0000000000000E+00
(PID.TID 0000.0001) %MON forcing_fu_del2              =   0.0000000000000E+00
(PID.TID 0000.0001) %MON forcing_fv_max               =   0.0000000000000E+00
(PID.TID 0000.0001) %MON forcing_fv_min               =   0.0000000000000E+00
(PID.TID 0000.0001) %MON forcing_fv_mean              =   0.0000000000000E+00
(PID.TID 0000.0001) %MON forcing_fv_sd                =   0.0000000000000E+00
(PID.TID 0000.0001) %MON forcing_fv_del2              =   0.0000000000000E+00
(PID.TID 0000.0001) %MON trAdv_CFL_u_max              =   9.7594135285576E-03
(PID.TID 0000.0001) %MON trAdv_CFL_v_max              =   2.2925354861087E-03
(PID.TID 0000.0001) %MON trAdv_CFL_w_max              =   5.4870312644901E-02
(PID.TID 0000.0001) %MON advcfl_uvel_max              =   9.7594135285754E-03
(PID.TID 0000.0001) %MON advcfl_vvel_max              =   2.2926439473501E-03
(PID.TID 0000.0001) %MON advcfl_wvel_max              =   5.4870312644901E-02
(PID.TID 0000.0001) %MON advcfl_W_hf_max              =   5.4870312644901E-02
(PID.TID 0000.0001) %MON pe_b_mean                    =   4.7236919442303E-04
(PID.TID 0000.0001) %MON ke_max                       =   1.9459023042538E-03
(PID.TID 0000.0001) %MON ke_mean                      =   3.4780641546199E-06
(PID.TID 0000.0001) %MON ke_vol                       =   1.7987028828373E+11
(PID.TID 0000.0001) %MON vort_r_min                   =  -3.8271292327747E-03
(PID.TID 0000.0001) %MON vort_r_max                   =   8.4797977217276E-04
(PID.TID 0000.0001) %MON vort_a_mean                  =   1.4389824107845E-04
(PID.TID 0000.0001) %MON vort_a_sd                    =   1.9076279411590E-05
(PID.TID 0000.0001) %MON vort_p_mean                  =   1.4952875885125E-04
(PID.TID 0000.0001) %MON vort_p_sd                    =   5.4632983988265E-05
(PID.TID 0000.0001) %MON surfExpan_theta_mean         =  -5.0932196318140E-07
(PID.TID 0000.0001) %MON surfExpan_salt_mean          =  -4.8967002394638E-05
(PID.TID 0000.0001) // =======================================================
(PID.TID 0000.0001) // End MONITOR dynamic field statistics
(PID.TID 0000.0001) // =======================================================
(PID.TID 0000.0001) // =======================================================
(PID.TID 0000.0001) // Begin OBCS MONITOR field statistics
(PID.TID 0000.0001) // =======================================================
(PID.TID 0000.0001) %MON obc_N_vVel_max               =   0.0000000000000E+00
(PID.TID 0000.0001) %MON obc_N_vVel_min               =   0.0000000000000E+00
(PID.TID 0000.0001) %MON obc_N_vVel_mean              =   0.0000000000000E+00
(PID.TID 0000.0001) %MON obc_N_vVel_sd                =   0.0000000000000E+00
(PID.TID 0000.0001) %MON obc_N_vVel_Int               =   0.0000000000000E+00
(PID.TID 0000.0001) // =======================================================
(PID.TID 0000.0001) // End OBCS MONITOR field statistics
(PID.TID 0000.0001) // =======================================================
 cg2d: Sum(rhs),rhsMax =  -2.14306914374454E+00  8.41785250160435E+00
(PID.TID 0000.0001)      cg2d_init_res =   2.38307703877578E-03
(PID.TID 0000.0001)      cg2d_iters(min,last) =      -1     165
(PID.TID 0000.0001)      cg2d_last_res =   9.09928695843375E-12
 SURF_ADJUSTMENT: Iter=    756016 Nb_pts,Vol=        12  1.77715151E+03
(PID.TID 0000.0001) // =======================================================
(PID.TID 0000.0001) // Begin MONITOR dynamic field statistics
(PID.TID 0000.0001) // =======================================================
(PID.TID 0000.0001) %MON time_tsnumber                =                756016
(PID.TID 0000.0001) %MON time_secondsf                =   3.0240640000000E+06
(PID.TID 0000.0001) %MON dynstat_eta_max              =   4.4566479718109E-01
(PID.TID 0000.0001) %MON dynstat_eta_min              =  -8.8754062002544E-01
(PID.TID 0000.0001) %MON dynstat_eta_mean             =   5.6480285114651E-03
(PID.TID 0000.0001) %MON dynstat_eta_sd               =   2.5832786906177E-01
(PID.TID 0000.0001) %MON dynstat_eta_del2             =   3.1832758937339E-04
(PID.TID 0000.0001) %MON dynstat_uvel_max             =   1.2239869817283E-02
(PID.TID 0000.0001) %MON dynstat_uvel_min             =  -3.9692317243074E-02
(PID.TID 0000.0001) %MON dynstat_uvel_mean            =  -1.5561388520094E-05
(PID.TID 0000.0001) %MON dynstat_uvel_sd              =   1.6515295492786E-03
(PID.TID 0000.0001) %MON dynstat_uvel_del2            =   7.0750537578661E-08
(PID.TID 0000.0001) %MON dynstat_vvel_max             =   5.7201660986720E-02
(PID.TID 0000.0001) %MON dynstat_vvel_min             =  -1.6769989335466E-02
(PID.TID 0000.0001) %MON dynstat_vvel_mean            =   2.1690844186181E-04
(PID.TID 0000.0001) %MON dynstat_vvel_sd              =   2.0610823559761E-03
(PID.TID 0000.0001) %MON dynstat_vvel_del2            =   4.1497006232801E-08
(PID.TID 0000.0001) %MON dynstat_wvel_max             =   6.8970956517745E-03
(PID.TID 0000.0001) %MON dynstat_wvel_min             =  -1.3934936847051E-02
(PID.TID 0000.0001) %MON dynstat_wvel_mean            =   3.3615721553561E-06
(PID.TID 0000.0001) %MON dynstat_wvel_sd              =   4.0381402846195E-04
(PID.TID 0000.0001) %MON dynstat_wvel_del2            =   2.0330394395400E-07
(PID.TID 0000.0001) %MON dynstat_theta_max            =   2.9331144436927E-01
(PID.TID 0000.0001) %MON dynstat_theta_min            =  -2.2662889911936E+00
(PID.TID 0000.0001) %MON dynstat_theta_mean           =   1.7407023467505E-01
(PID.TID 0000.0001) %MON dynstat_theta_sd             =   2.3287572434378E-01
(PID.TID 0000.0001) %MON dynstat_theta_del2           =   1.4602180404242E-06
(PID.TID 0000.0001) %MON dynstat_salt_max             =   3.4777442714369E+01
(PID.TID 0000.0001) %MON dynstat_salt_min             =   2.9766698548302E+01
(PID.TID 0000.0001) %MON dynstat_salt_mean            =   3.4616487485577E+01
(PID.TID 0000.0001) %MON dynstat_salt_sd              =   5.8407838702037E-01
(PID.TID 0000.0001) %MON dynstat_salt_del2            =   1.6636118214508E-06
(PID.TID 0000.0001) %MON dynstat_sst_max              =   0.0000000000000E+00
(PID.TID 0000.0001) %MON dynstat_sst_min              =  -5.2697629857717E-01
(PID.TID 0000.0001) %MON dynstat_sst_mean             =  -4.5808773546634E-02
(PID.TID 0000.0001) %MON dynstat_sst_sd               =   9.0839912952100E-02
(PID.TID 0000.0001) %MON dynstat_sst_del2             =   8.3727180698024E-05
(PID.TID 0000.0001) %MON dynstat_sss_max              =   3.0529605765430E+01
(PID.TID 0000.0001) %MON dynstat_sss_min              =   0.0000000000000E+00
(PID.TID 0000.0001) %MON dynstat_sss_mean             =   7.2409638379130E+00
(PID.TID 0000.0001) %MON dynstat_sss_sd               =   1.2862562909397E+01
(PID.TID 0000.0001) %MON dynstat_sss_del2             =   7.0181805812370E-03
(PID.TID 0000.0001) %MON forcing_qnet_max             =   0.0000000000000E+00
(PID.TID 0000.0001) %MON forcing_qnet_min             =   0.0000000000000E+00
(PID.TID 0000.0001) %MON forcing_qnet_mean            =   0.0000000000000E+00
(PID.TID 0000.0001) %MON forcing_qnet_sd              =   0.0000000000000E+00
(PID.TID 0000.0001) %MON forcing_qnet_del2            =   0.0000000000000E+00
(PID.TID 0000.0001) %MON forcing_qsw_max              =   0.0000000000000E+00
(PID.TID 0000.0001) %MON forcing_qsw_min              =   0.0000000000000E+00
(PID.TID 0000.0001) %MON forcing_qsw_mean             =   0.0000000000000E+00
(PID.TID 0000.0001) %MON forcing_qsw_sd               =   0.0000000000000E+00
(PID.TID 0000.0001) %MON forcing_qsw_del2             =   0.0000000000000E+00
(PID.TID 0000.0001) %MON forcing_empmr_max            =   2.6065039186287E-05
(PID.TID 0000.0001) %MON forcing_empmr_min            =  -3.6195410297317E-04
(PID.TID 0000.0001) %MON forcing_empmr_mean           =  -3.7569380187917E-05
(PID.TID 0000.0001) %MON forcing_empmr_sd             =   5.4055592465297E-05
(PID.TID 0000.0001) %MON forcing_empmr_del2           =   1.8402365162533E-07
(PID.TID 0000.0001) %MON forcing_fu_max               =   0.0000000000000E+00
(PID.TID 0000.0001) %MON forcing_fu_min               =   0.0000000000000E+00
(PID.TID 0000.0001) %MON forcing_fu_mean              =   0.0000000000000E+00
(PID.TID 0000.0001) %MON forcing_fu_sd                =   0.0000000000000E+00
(PID.TID 0000.0001) %MON forcing_fu_del2              =   0.0000000000000E+00
(PID.TID 0000.0001) %MON forcing_fv_max               =   0.0000000000000E+00
(PID.TID 0000.0001) %MON forcing_fv_min               =   0.0000000000000E+00
(PID.TID 0000.0001) %MON forcing_fv_mean              =   0.0000000000000E+00
(PID.TID 0000.0001) %MON forcing_fv_sd                =   0.0000000000000E+00
(PID.TID 0000.0001) %MON forcing_fv_del2              =   0.0000000000000E+00
(PID.TID 0000.0001) %MON trAdv_CFL_u_max              =   9.7623349889033E-03
(PID.TID 0000.0001) %MON trAdv_CFL_v_max              =   2.2925375886224E-03
(PID.TID 0000.0001) %MON trAdv_CFL_w_max              =   5.5698530475653E-02
(PID.TID 0000.0001) %MON advcfl_uvel_max              =   9.7623349889212E-03
(PID.TID 0000.0001) %MON advcfl_vvel_max              =   2.2926460499633E-03
(PID.TID 0000.0001) %MON advcfl_wvel_max              =   5.5698530475653E-02
(PID.TID 0000.0001) %MON advcfl_W_hf_max              =   5.5698530475653E-02
(PID.TID 0000.0001) %MON pe_b_mean                    =   4.7274796671054E-04
(PID.TID 0000.0001) %MON ke_max                       =   1.9459056913396E-03
(PID.TID 0000.0001) %MON ke_mean                      =   3.4800238667942E-06
(PID.TID 0000.0001) %MON ke_vol                       =   1.7987028832412E+11
(PID.TID 0000.0001) %MON vort_r_min                   =  -3.8271327727933E-03
(PID.TID 0000.0001) %MON vort_r_max                   =   8.5105559578473E-04
(PID.TID 0000.0001) %MON vort_a_mean                  =   1.4389824107845E-04
(PID.TID 0000.0001) %MON vort_a_sd                    =   1.9085134984447E-05
(PID.TID 0000.0001) %MON vort_p_mean                  =   1.4952875821356E-04
(PID.TID 0000.0001) %MON vort_p_sd                    =   5.4642185140732E-05
(PID.TID 0000.0001) %MON surfExpan_theta_mean         =  -1.9518792582151E-07
(PID.TID 0000.0001) %MON surfExpan_salt_mean          =  -5.3501186526169E-05
(PID.TID 0000.0001) // =======================================================
(PID.TID 0000.0001) // End MONITOR dynamic field statistics
(PID.TID 0000.0001) // =======================================================
(PID.TID 0000.0001) // =======================================================
(PID.TID 0000.0001) // Begin OBCS MONITOR field statistics
(PID.TID 0000.0001) // =======================================================
(PID.TID 0000.0001) %MON obc_N_vVel_max               =   0.0000000000000E+00
(PID.TID 0000.0001) %MON obc_N_vVel_min               =   0.0000000000000E+00
(PID.TID 0000.0001) %MON obc_N_vVel_mean              =   0.0000000000000E+00
(PID.TID 0000.0001) %MON obc_N_vVel_sd                =   0.0000000000000E+00
(PID.TID 0000.0001) %MON obc_N_vVel_Int               =   0.0000000000000E+00
(PID.TID 0000.0001) // =======================================================
(PID.TID 0000.0001) // End OBCS MONITOR field statistics
(PID.TID 0000.0001) // =======================================================
 SURF_ADJUSTMENT: Iter=    756016 Nb_pts,Vol=        12  1.77715433E+03
 SURF_ADJUSTMENT: Iter=    756016 Nb_pts,Vol=        12  1.77715151E+03
 cg2d: Sum(rhs),rhsMax =  -2.14314201874131E+00  8.41778378792856E+00
(PID.TID 0000.0001)      cg2d_init_res =   2.27347665139256E-03
(PID.TID 0000.0001)      cg2d_iters(min,last) =      -1     165
(PID.TID 0000.0001)      cg2d_last_res =   9.16450136064925E-12
 SURF_ADJUSTMENT: Iter=    756017 Nb_pts,Vol=        12  1.77714870E+03
(PID.TID 0000.0001) // =======================================================
(PID.TID 0000.0001) // Begin MONITOR dynamic field statistics
(PID.TID 0000.0001) // =======================================================
(PID.TID 0000.0001) %MON time_tsnumber                =                756017
(PID.TID 0000.0001) %MON time_secondsf                =   3.0240680000000E+06
(PID.TID 0000.0001) %MON dynstat_eta_max              =   4.4558136210642E-01
(PID.TID 0000.0001) %MON dynstat_eta_min              =  -8.8743740635004E-01
(PID.TID 0000.0001) %MON dynstat_eta_mean             =   5.6481744669087E-03
(PID.TID 0000.0001) %MON dynstat_eta_sd               =   2.5843302233903E-01
(PID.TID 0000.0001) %MON dynstat_eta_del2             =   3.1830892567863E-04
(PID.TID 0000.0001) %MON dynstat_uvel_max             =   1.2655850446910E-02
(PID.TID 0000.0001) %MON dynstat_uvel_min             =  -3.9709651217640E-02
(PID.TID 0000.0001) %MON dynstat_uvel_mean            =  -2.0785409812734E-05
(PID.TID 0000.0001) %MON dynstat_uvel_sd              =   1.6541925641944E-03
(PID.TID 0000.0001) %MON dynstat_uvel_del2            =   7.1029402459435E-08
(PID.TID 0000.0001) %MON dynstat_vvel_max             =   5.7201794792585E-02
(PID.TID 0000.0001) %MON dynstat_vvel_min             =  -1.7372823107682E-02
(PID.TID 0000.0001) %MON dynstat_vvel_mean            =   2.1627579011987E-04
(PID.TID 0000.0001) %MON dynstat_vvel_sd              =   2.0593295047511E-03
(PID.TID 0000.0001) %MON dynstat_vvel_del2            =   4.2292503491115E-08
(PID.TID 0000.0001) %MON dynstat_wvel_max             =   6.9593560327106E-03
(PID.TID 0000.0001) %MON dynstat_wvel_min             =  -1.4203760223818E-02
(PID.TID 0000.0001) %MON dynstat_wvel_mean            =   3.5417269008202E-06
(PID.TID 0000.0001) %MON dynstat_wvel_sd              =   4.1280053194620E-04
(PID.TID 0000.0001) %MON dynstat_wvel_del2            =   2.0809114724452E-07
(PID.TID 0000.0001) %MON dynstat_theta_max            =   2.9331144436136E-01
(PID.TID 0000.0001) %MON dynstat_theta_min            =  -2.2662891633989E+00
(PID.TID 0000.0001) %MON dynstat_theta_mean           =   1.7407022605352E-01
(PID.TID 0000.0001) %MON dynstat_theta_sd             =   2.3287571498937E-01
(PID.TID 0000.0001) %MON dynstat_theta_del2           =   1.4602015757596E-06
(PID.TID 0000.0001) %MON dynstat_salt_max             =   3.4777442714364E+01
(PID.TID 0000.0001) %MON dynstat_salt_min             =   2.9766698551536E+01
(PID.TID 0000.0001) %MON dynstat_salt_mean            =   3.4616487495820E+01
(PID.TID 0000.0001) %MON dynstat_salt_sd              =   5.8407831233764E-01
(PID.TID 0000.0001) %MON dynstat_salt_del2            =   1.6633910228624E-06
(PID.TID 0000.0001) %MON dynstat_sst_max              =   0.0000000000000E+00
(PID.TID 0000.0001) %MON dynstat_sst_min              =  -5.2693556615268E-01
(PID.TID 0000.0001) %MON dynstat_sst_mean             =  -4.5808819063963E-02
(PID.TID 0000.0001) %MON dynstat_sst_sd               =   9.0839971749849E-02
(PID.TID 0000.0001) %MON dynstat_sst_del2             =   8.3726458706292E-05
(PID.TID 0000.0001) %MON dynstat_sss_max              =   3.0529595676117E+01
(PID.TID 0000.0001) %MON dynstat_sss_min              =   0.0000000000000E+00
(PID.TID 0000.0001) %MON dynstat_sss_mean             =   7.2409639750840E+00
(PID.TID 0000.0001) %MON dynstat_sss_sd               =   1.2862563152851E+01
(PID.TID 0000.0001) %MON dynstat_sss_del2             =   7.0181804366393E-03
(PID.TID 0000.0001) %MON forcing_qnet_max             =   0.0000000000000E+00
(PID.TID 0000.0001) %MON forcing_qnet_min             =   0.0000000000000E+00
(PID.TID 0000.0001) %MON forcing_qnet_mean            =   0.0000000000000E+00
(PID.TID 0000.0001) %MON forcing_qnet_sd              =   0.0000000000000E+00
(PID.TID 0000.0001) %MON forcing_qnet_del2            =   0.0000000000000E+00
(PID.TID 0000.0001) %MON forcing_qsw_max              =   0.0000000000000E+00
(PID.TID 0000.0001) %MON forcing_qsw_min              =   0.0000000000000E+00
(PID.TID 0000.0001) %MON forcing_qsw_mean             =   0.0000000000000E+00
(PID.TID 0000.0001) %MON forcing_qsw_sd               =   0.0000000000000E+00
(PID.TID 0000.0001) %MON forcing_qsw_del2             =   0.0000000000000E+00
(PID.TID 0000.0001) %MON forcing_empmr_max            =   2.3682301793544E-05
(PID.TID 0000.0001) %MON forcing_empmr_min            =  -3.6195460671195E-04
(PID.TID 0000.0001) %MON forcing_empmr_mean           =  -3.7583526720571E-05
(PID.TID 0000.0001) %MON forcing_empmr_sd             =   5.4059645928447E-05
(PID.TID 0000.0001) %MON forcing_empmr_del2           =   1.8408986135904E-07
(PID.TID 0000.0001) %MON forcing_fu_max               =   0.0000000000000E+00
(PID.TID 0000.0001) %MON forcing_fu_min               =   0.0000000000000E+00
(PID.TID 0000.0001) %MON forcing_fu_mean              =   0.0000000000000E+00
(PID.TID 0000.0001) %MON forcing_fu_sd                =   0.0000000000000E+00
(PID.TID 0000.0001) %MON forcing_fu_del2              =   0.0000000000000E+00
(PID.TID 0000.0001) %MON forcing_fv_max               =   0.0000000000000E+00
(PID.TID 0000.0001) %MON forcing_fv_min               =   0.0000000000000E+00
(PID.TID 0000.0001) %MON forcing_fv_mean              =   0.0000000000000E+00
(PID.TID 0000.0001) %MON forcing_fv_sd                =   0.0000000000000E+00
(PID.TID 0000.0001) %MON forcing_fv_del2              =   0.0000000000000E+00
(PID.TID 0000.0001) %MON trAdv_CFL_u_max              =   9.7665982841243E-03
(PID.TID 0000.0001) %MON trAdv_CFL_v_max              =   2.2925429513159E-03
(PID.TID 0000.0001) %MON trAdv_CFL_w_max              =   5.6773028853920E-02
(PID.TID 0000.0001) %MON advcfl_uvel_max              =   9.7665982841421E-03
(PID.TID 0000.0001) %MON advcfl_vvel_max              =   2.2926514129106E-03
(PID.TID 0000.0001) %MON advcfl_wvel_max              =   5.6773028853920E-02
(PID.TID 0000.0001) %MON advcfl_W_hf_max              =   5.6773028853920E-02
(PID.TID 0000.0001) %MON pe_b_mean                    =   4.7314936874133E-04
(PID.TID 0000.0001) %MON ke_max                       =   1.9459144002520E-03
(PID.TID 0000.0001) %MON ke_mean                      =   3.4807695403944E-06
(PID.TID 0000.0001) %MON ke_vol                       =   1.7987028836452E+11
(PID.TID 0000.0001) %MON vort_r_min                   =  -3.8271417954825E-03
(PID.TID 0000.0001) %MON vort_r_max                   =   8.5446036356452E-04
(PID.TID 0000.0001) %MON vort_a_mean                  =   1.4389824107845E-04
(PID.TID 0000.0001) %MON vort_a_sd                    =   1.9095014341920E-05
(PID.TID 0000.0001) %MON vort_p_mean                  =   1.4952875738437E-04
(PID.TID 0000.0001) %MON vort_p_sd                    =   5.4653475436860E-05
(PID.TID 0000.0001) %MON surfExpan_theta_mean         =  -1.7032560209974E-07
(PID.TID 0000.0001) %MON surfExpan_salt_mean          =  -5.6165055603710E-05
(PID.TID 0000.0001) // =======================================================
(PID.TID 0000.0001) // End MONITOR dynamic field statistics
(PID.TID 0000.0001) // =======================================================
(PID.TID 0000.0001) // =======================================================
(PID.TID 0000.0001) // Begin OBCS MONITOR field statistics
(PID.TID 0000.0001) // =======================================================
(PID.TID 0000.0001) %MON obc_N_vVel_max               =   0.0000000000000E+00
(PID.TID 0000.0001) %MON obc_N_vVel_min               =   0.0000000000000E+00
(PID.TID 0000.0001) %MON obc_N_vVel_mean              =   0.0000000000000E+00
(PID.TID 0000.0001) %MON obc_N_vVel_sd                =   0.0000000000000E+00
(PID.TID 0000.0001) %MON obc_N_vVel_Int               =   0.0000000000000E+00
(PID.TID 0000.0001) // =======================================================
(PID.TID 0000.0001) // End OBCS MONITOR field statistics
(PID.TID 0000.0001) // =======================================================
 cg2d: Sum(rhs),rhsMax =  -2.14323038620160E+00  8.41765431791749E+00
(PID.TID 0000.0001)      cg2d_init_res =   2.18165076042919E-03
(PID.TID 0000.0001)      cg2d_iters(min,last) =      -1     164
(PID.TID 0000.0001)      cg2d_last_res =   9.83696911770393E-12
 SURF_ADJUSTMENT: Iter=    756018 Nb_pts,Vol=        12  1.77714588E+03
(PID.TID 0000.0001) // =======================================================
(PID.TID 0000.0001) // Begin MONITOR dynamic field statistics
(PID.TID 0000.0001) // =======================================================
(PID.TID 0000.0001) %MON time_tsnumber                =                756018
(PID.TID 0000.0001) %MON time_secondsf                =   3.0240720000000E+06
(PID.TID 0000.0001) %MON dynstat_eta_max              =   4.4551555592814E-01
(PID.TID 0000.0001) %MON dynstat_eta_min              =  -8.8729672112047E-01
(PID.TID 0000.0001) %MON dynstat_eta_mean             =   5.6483204806809E-03
(PID.TID 0000.0001) %MON dynstat_eta_sd               =   2.5853981985867E-01
(PID.TID 0000.0001) %MON dynstat_eta_del2             =   3.1828971519164E-04
(PID.TID 0000.0001) %MON dynstat_uvel_max             =   1.3017725095050E-02
(PID.TID 0000.0001) %MON dynstat_uvel_min             =  -3.9733277471530E-02
(PID.TID 0000.0001) %MON dynstat_uvel_mean            =  -2.6954112059873E-05
(PID.TID 0000.0001) %MON dynstat_uvel_sd              =   1.6561828206431E-03
(PID.TID 0000.0001) %MON dynstat_uvel_del2            =   7.1286647395672E-08
(PID.TID 0000.0001) %MON dynstat_vvel_max             =   5.7202091781965E-02
(PID.TID 0000.0001) %MON dynstat_vvel_min             =  -1.7947896116870E-02
(PID.TID 0000.0001) %MON dynstat_vvel_mean            =   2.1046834983434E-04
(PID.TID 0000.0001) %MON dynstat_vvel_sd              =   2.0578821674821E-03
(PID.TID 0000.0001) %MON dynstat_vvel_del2            =   4.2939927682230E-08
(PID.TID 0000.0001) %MON dynstat_wvel_max             =   6.9267023796812E-03
(PID.TID 0000.0001) %MON dynstat_wvel_min             =  -1.4477303403359E-02
(PID.TID 0000.0001) %MON dynstat_wvel_mean            =   3.6581375985415E-06
(PID.TID 0000.0001) %MON dynstat_wvel_sd              =   4.2007850527163E-04
(PID.TID 0000.0001) %MON dynstat_wvel_del2            =   2.1169597259455E-07
(PID.TID 0000.0001) %MON dynstat_theta_max            =   2.9331144435342E-01
(PID.TID 0000.0001) %MON dynstat_theta_min            =  -2.2662893356032E+00
(PID.TID 0000.0001) %MON dynstat_theta_mean           =   1.7407021916054E-01
(PID.TID 0000.0001) %MON dynstat_theta_sd             =   2.3287570205035E-01
(PID.TID 0000.0001) %MON dynstat_theta_del2           =   1.4601859725651E-06
(PID.TID 0000.0001) %MON dynstat_salt_max             =   3.4777442714358E+01
(PID.TID 0000.0001) %MON dynstat_salt_min             =   2.9766698554463E+01
(PID.TID 0000.0001) %MON dynstat_salt_mean            =   3.4616487492203E+01
(PID.TID 0000.0001) %MON dynstat_salt_sd              =   5.8407830647628E-01
(PID.TID 0000.0001) %MON dynstat_salt_del2            =   1.6631842332605E-06
(PID.TID 0000.0001) %MON dynstat_sst_max              =   0.0000000000000E+00
(PID.TID 0000.0001) %MON dynstat_sst_min              =  -5.2689351938904E-01
(PID.TID 0000.0001) %MON dynstat_sst_mean             =  -4.5808860049241E-02
(PID.TID 0000.0001) %MON dynstat_sst_sd               =   9.0840020863431E-02
(PID.TID 0000.0001) %MON dynstat_sst_del2             =   8.3725709200115E-05
(PID.TID 0000.0001) %MON dynstat_sss_max              =   3.0529585189415E+01
(PID.TID 0000.0001) %MON dynstat_sss_min              =   0.0000000000000E+00
(PID.TID 0000.0001) %MON dynstat_sss_mean             =   7.2409641062185E+00
(PID.TID 0000.0001) %MON dynstat_sss_sd               =   1.2862563385624E+01
(PID.TID 0000.0001) %MON dynstat_sss_del2             =   7.0181802830852E-03
(PID.TID 0000.0001) %MON forcing_qnet_max             =   0.0000000000000E+00
(PID.TID 0000.0001) %MON forcing_qnet_min             =   0.0000000000000E+00
(PID.TID 0000.0001) %MON forcing_qnet_mean            =   0.0000000000000E+00
(PID.TID 0000.0001) %MON forcing_qnet_sd              =   0.0000000000000E+00
(PID.TID 0000.0001) %MON forcing_qnet_del2            =   0.0000000000000E+00
(PID.TID 0000.0001) %MON forcing_qsw_max              =   0.0000000000000E+00
(PID.TID 0000.0001) %MON forcing_qsw_min              =   0.0000000000000E+00
(PID.TID 0000.0001) %MON forcing_qsw_mean             =   0.0000000000000E+00
(PID.TID 0000.0001) %MON forcing_qsw_sd               =   0.0000000000000E+00
(PID.TID 0000.0001) %MON forcing_qsw_del2             =   0.0000000000000E+00
(PID.TID 0000.0001) %MON forcing_empmr_max            =   2.1482919050488E-05
(PID.TID 0000.0001) %MON forcing_empmr_min            =  -3.6195581547805E-04
(PID.TID 0000.0001) %MON forcing_empmr_mean           =  -3.7598546337130E-05
(PID.TID 0000.0001) %MON forcing_empmr_sd             =   5.4064571392132E-05
(PID.TID 0000.0001) %MON forcing_empmr_del2           =   1.8415838389612E-07
(PID.TID 0000.0001) %MON forcing_fu_max               =   0.0000000000000E+00
(PID.TID 0000.0001) %MON forcing_fu_min               =   0.0000000000000E+00
(PID.TID 0000.0001) %MON forcing_fu_mean              =   0.0000000000000E+00
(PID.TID 0000.0001) %MON forcing_fu_sd                =   0.0000000000000E+00
(PID.TID 0000.0001) %MON forcing_fu_del2              =   0.0000000000000E+00
(PID.TID 0000.0001) %MON forcing_fv_max               =   0.0000000000000E+00
(PID.TID 0000.0001) %MON forcing_fv_min               =   0.0000000000000E+00
(PID.TID 0000.0001) %MON forcing_fv_mean              =   0.0000000000000E+00
(PID.TID 0000.0001) %MON forcing_fv_sd                =   0.0000000000000E+00
(PID.TID 0000.0001) %MON forcing_fv_del2              =   0.0000000000000E+00
(PID.TID 0000.0001) %MON trAdv_CFL_u_max              =   9.7724091669606E-03
(PID.TID 0000.0001) %MON trAdv_CFL_v_max              =   2.2925548541052E-03
(PID.TID 0000.0001) %MON trAdv_CFL_w_max              =   5.7866392483000E-02
(PID.TID 0000.0001) %MON advcfl_uvel_max              =   9.7724091669785E-03
(PID.TID 0000.0001) %MON advcfl_vvel_max              =   2.2926633162630E-03
(PID.TID 0000.0001) %MON advcfl_wvel_max              =   5.7866392483000E-02
(PID.TID 0000.0001) %MON advcfl_W_hf_max              =   5.7866392483000E-02
(PID.TID 0000.0001) %MON pe_b_mean                    =   4.7356167230503E-04
(PID.TID 0000.0001) %MON ke_max                       =   1.9459338184506E-03
(PID.TID 0000.0001) %MON ke_mean                      =   3.4800029999201E-06
(PID.TID 0000.0001) %MON ke_vol                       =   1.7987028840493E+11
(PID.TID 0000.0001) %MON vort_r_min                   =  -3.8271618161871E-03
(PID.TID 0000.0001) %MON vort_r_max                   =   8.5792621649040E-04
(PID.TID 0000.0001) %MON vort_a_mean                  =   1.4389824107846E-04
(PID.TID 0000.0001) %MON vort_a_sd                    =   1.9105874642356E-05
(PID.TID 0000.0001) %MON vort_p_mean                  =   1.4952875644782E-04
(PID.TID 0000.0001) %MON vort_p_sd                    =   5.4666306269043E-05
(PID.TID 0000.0001) %MON surfExpan_theta_mean         =  -4.2736730652758E-07
(PID.TID 0000.0001) %MON surfExpan_salt_mean          =  -5.6579240209505E-05
(PID.TID 0000.0001) // =======================================================
(PID.TID 0000.0001) // End MONITOR dynamic field statistics
(PID.TID 0000.0001) // =======================================================
(PID.TID 0000.0001) // =======================================================
(PID.TID 0000.0001) // Begin OBCS MONITOR field statistics
(PID.TID 0000.0001) // =======================================================
(PID.TID 0000.0001) %MON obc_N_vVel_max               =   0.0000000000000E+00
(PID.TID 0000.0001) %MON obc_N_vVel_min               =   0.0000000000000E+00
(PID.TID 0000.0001) %MON obc_N_vVel_mean              =   0.0000000000000E+00
(PID.TID 0000.0001) %MON obc_N_vVel_sd                =   0.0000000000000E+00
(PID.TID 0000.0001) %MON obc_N_vVel_Int               =   0.0000000000000E+00
(PID.TID 0000.0001) // =======================================================
(PID.TID 0000.0001) // End OBCS MONITOR field statistics
(PID.TID 0000.0001) // =======================================================
 SURF_ADJUSTMENT: Iter=    756018 Nb_pts,Vol=        12  1.77714870E+03
 SURF_ADJUSTMENT: Iter=    756018 Nb_pts,Vol=        12  1.77714588E+03
 cg2d: Sum(rhs),rhsMax =  -2.14334397687916E+00  8.41742588763703E+00
(PID.TID 0000.0001)      cg2d_init_res =   2.08900659002155E-03
(PID.TID 0000.0001)      cg2d_iters(min,last) =      -1     164
(PID.TID 0000.0001)      cg2d_last_res =   9.43798367845243E-12
 SURF_ADJUSTMENT: Iter=    756019 Nb_pts,Vol=        12  1.77714307E+03
(PID.TID 0000.0001) // =======================================================
(PID.TID 0000.0001) // Begin MONITOR dynamic field statistics
(PID.TID 0000.0001) // =======================================================
(PID.TID 0000.0001) %MON time_tsnumber                =                756019
(PID.TID 0000.0001) %MON time_secondsf                =   3.0240760000000E+06
(PID.TID 0000.0001) %MON dynstat_eta_max              =   4.4544382258943E-01
(PID.TID 0000.0001) %MON dynstat_eta_min              =  -8.8716442166973E-01
(PID.TID 0000.0001) %MON dynstat_eta_mean             =   5.6484665534001E-03
(PID.TID 0000.0001) %MON dynstat_eta_sd               =   2.5864462832972E-01
(PID.TID 0000.0001) %MON dynstat_eta_del2             =   3.1827005513176E-04
(PID.TID 0000.0001) %MON dynstat_uvel_max             =   1.3322765561207E-02
(PID.TID 0000.0001) %MON dynstat_uvel_min             =  -3.9763422857443E-02
(PID.TID 0000.0001) %MON dynstat_uvel_mean            =  -3.4202862170441E-05
(PID.TID 0000.0001) %MON dynstat_uvel_sd              =   1.6572458535059E-03
(PID.TID 0000.0001) %MON dynstat_uvel_del2            =   7.1522860778265E-08
(PID.TID 0000.0001) %MON dynstat_vvel_max             =   5.7202696339358E-02
(PID.TID 0000.0001) %MON dynstat_vvel_min             =  -1.8508178814575E-02
(PID.TID 0000.0001) %MON dynstat_vvel_mean            =   2.0009619545560E-04
(PID.TID 0000.0001) %MON dynstat_vvel_sd              =   2.0567699197651E-03
(PID.TID 0000.0001) %MON dynstat_vvel_del2            =   4.3440659573049E-08
(PID.TID 0000.0001) %MON dynstat_wvel_max             =   6.8185997210533E-03
(PID.TID 0000.0001) %MON dynstat_wvel_min             =  -1.4671980142418E-02
(PID.TID 0000.0001) %MON dynstat_wvel_mean            =   3.6899559052349E-06
(PID.TID 0000.0001) %MON dynstat_wvel_sd              =   4.2544803140933E-04
(PID.TID 0000.0001) %MON dynstat_wvel_del2            =   2.1414617710214E-07
(PID.TID 0000.0001) %MON dynstat_theta_max            =   2.9331144434544E-01
(PID.TID 0000.0001) %MON dynstat_theta_min            =  -2.2662895078065E+00
(PID.TID 0000.0001) %MON dynstat_theta_mean           =   1.7407021374782E-01
(PID.TID 0000.0001) %MON dynstat_theta_sd             =   2.3287568608295E-01
(PID.TID 0000.0001) %MON dynstat_theta_del2           =   1.4601715515741E-06
(PID.TID 0000.0001) %MON dynstat_salt_max             =   3.4777442714352E+01
(PID.TID 0000.0001) %MON dynstat_salt_min             =   2.9766698556880E+01
(PID.TID 0000.0001) %MON dynstat_salt_mean            =   3.4616487473869E+01
(PID.TID 0000.0001) %MON dynstat_salt_sd              =   5.8407836962912E-01
(PID.TID 0000.0001) %MON dynstat_salt_del2            =   1.6629932681354E-06
(PID.TID 0000.0001) %MON dynstat_sst_max              =   0.0000000000000E+00
(PID.TID 0000.0001) %MON dynstat_sst_min              =  -5.2685039039313E-01
(PID.TID 0000.0001) %MON dynstat_sst_mean             =  -4.5808893643978E-02
(PID.TID 0000.0001) %MON dynstat_sst_sd               =   9.0840056705303E-02
(PID.TID 0000.0001) %MON dynstat_sst_del2             =   8.3724936983975E-05
(PID.TID 0000.0001) %MON dynstat_sss_max              =   3.0529574371756E+01
(PID.TID 0000.0001) %MON dynstat_sss_min              =   0.0000000000000E+00
(PID.TID 0000.0001) %MON dynstat_sss_mean             =   7.2409642255049E+00
(PID.TID 0000.0001) %MON dynstat_sss_sd               =   1.2862563597422E+01
(PID.TID 0000.0001) %MON dynstat_sss_del2             =   7.0181801221023E-03
(PID.TID 0000.0001) %MON forcing_qnet_max             =   0.0000000000000E+00
(PID.TID 0000.0001) %MON forcing_qnet_min             =   0.0000000000000E+00
(PID.TID 0000.0001) %MON forcing_qnet_mean            =   0.0000000000000E+00
(PID.TID 0000.0001) %MON forcing_qnet_sd              =   0.0000000000000E+00
(PID.TID 0000.0001) %MON forcing_qnet_del2            =   0.0000000000000E+00
(PID.TID 0000.0001) %MON forcing_qsw_max              =   0.0000000000000E+00
(PID.TID 0000.0001) %MON forcing_qsw_min              =   0.0000000000000E+00
(PID.TID 0000.0001) %MON forcing_qsw_mean             =   0.0000000000000E+00
(PID.TID 0000.0001) %MON forcing_qsw_sd               =   0.0000000000000E+00
(PID.TID 0000.0001) %MON forcing_qsw_del2             =   0.0000000000000E+00
(PID.TID 0000.0001) %MON forcing_empmr_max            =   1.9548065051761E-05
(PID.TID 0000.0001) %MON forcing_empmr_min            =  -3.6195841227053E-04
(PID.TID 0000.0001) %MON forcing_empmr_mean           =  -3.7613725200726E-05
(PID.TID 0000.0001) %MON forcing_empmr_sd             =   5.4071156568702E-05
(PID.TID 0000.0001) %MON forcing_empmr_del2           =   1.8422966300188E-07
(PID.TID 0000.0001) %MON forcing_fu_max               =   0.0000000000000E+00
(PID.TID 0000.0001) %MON forcing_fu_min               =   0.0000000000000E+00
(PID.TID 0000.0001) %MON forcing_fu_mean              =   0.0000000000000E+00
(PID.TID 0000.0001) %MON forcing_fu_sd                =   0.0000000000000E+00
(PID.TID 0000.0001) %MON forcing_fu_del2              =   0.0000000000000E+00
(PID.TID 0000.0001) %MON forcing_fv_max               =   0.0000000000000E+00
(PID.TID 0000.0001) %MON forcing_fv_min               =   0.0000000000000E+00
(PID.TID 0000.0001) %MON forcing_fv_mean              =   0.0000000000000E+00
(PID.TID 0000.0001) %MON forcing_fv_sd                =   0.0000000000000E+00
(PID.TID 0000.0001) %MON forcing_fv_del2              =   0.0000000000000E+00
(PID.TID 0000.0001) %MON trAdv_CFL_u_max              =   9.7798234318887E-03
(PID.TID 0000.0001) %MON trAdv_CFL_v_max              =   2.2925790836560E-03
(PID.TID 0000.0001) %MON trAdv_CFL_w_max              =   5.8644523622192E-02
(PID.TID 0000.0001) %MON advcfl_uvel_max              =   9.7798234319066E-03
(PID.TID 0000.0001) %MON advcfl_vvel_max              =   2.2926875469600E-03
(PID.TID 0000.0001) %MON advcfl_wvel_max              =   5.8644523622192E-02
(PID.TID 0000.0001) %MON advcfl_W_hf_max              =   5.8644523622192E-02
(PID.TID 0000.0001) %MON pe_b_mean                    =   4.7397105297590E-04
(PID.TID 0000.0001) %MON ke_max                       =   1.9459734866259E-03
(PID.TID 0000.0001) %MON ke_mean                      =   3.4775929702239E-06
(PID.TID 0000.0001) %MON ke_vol                       =   1.7987028844536E+11
(PID.TID 0000.0001) %MON vort_r_min                   =  -3.8272025648193E-03
(PID.TID 0000.0001) %MON vort_r_max                   =   8.6115499735531E-04
(PID.TID 0000.0001) %MON vort_a_mean                  =   1.4389824107845E-04
(PID.TID 0000.0001) %MON vort_a_sd                    =   1.9117591137348E-05
(PID.TID 0000.0001) %MON vort_p_mean                  =   1.4952875566343E-04
(PID.TID 0000.0001) %MON vort_p_sd                    =   5.4680333349969E-05
(PID.TID 0000.0001) %MON surfExpan_theta_mean         =  -9.2601231428242E-07
(PID.TID 0000.0001) %MON surfExpan_salt_mean          =  -5.4604643847719E-05
(PID.TID 0000.0001) // =======================================================
(PID.TID 0000.0001) // End MONITOR dynamic field statistics
(PID.TID 0000.0001) // =======================================================
(PID.TID 0000.0001) // =======================================================
(PID.TID 0000.0001) // Begin OBCS MONITOR field statistics
(PID.TID 0000.0001) // =======================================================
(PID.TID 0000.0001) %MON obc_N_vVel_max               =   0.0000000000000E+00
(PID.TID 0000.0001) %MON obc_N_vVel_min               =   0.0000000000000E+00
(PID.TID 0000.0001) %MON obc_N_vVel_mean              =   0.0000000000000E+00
(PID.TID 0000.0001) %MON obc_N_vVel_sd                =   0.0000000000000E+00
(PID.TID 0000.0001) %MON obc_N_vVel_Int               =   0.0000000000000E+00
(PID.TID 0000.0001) // =======================================================
(PID.TID 0000.0001) // End OBCS MONITOR field statistics
(PID.TID 0000.0001) // =======================================================
 cg2d: Sum(rhs),rhsMax =  -2.14348570653913E+00  8.41708707563301E+00
(PID.TID 0000.0001)      cg2d_init_res =   1.97957063832222E-03
(PID.TID 0000.0001)      cg2d_iters(min,last) =      -1     164
(PID.TID 0000.0001)      cg2d_last_res =   9.34461917795246E-12
 SURF_ADJUSTMENT: Iter=    756020 Nb_pts,Vol=        12  1.77714025E+03
(PID.TID 0000.0001) // =======================================================
(PID.TID 0000.0001) // Begin MONITOR dynamic field statistics
(PID.TID 0000.0001) // =======================================================
(PID.TID 0000.0001) %MON time_tsnumber                =                756020
(PID.TID 0000.0001) %MON time_secondsf                =   3.0240800000000E+06
(PID.TID 0000.0001) %MON dynstat_eta_max              =   4.4538270970099E-01
(PID.TID 0000.0001) %MON dynstat_eta_min              =  -8.8708638344537E-01
(PID.TID 0000.0001) %MON dynstat_eta_mean             =   5.6486126880563E-03
(PID.TID 0000.0001) %MON dynstat_eta_sd               =   2.5874378861348E-01
(PID.TID 0000.0001) %MON dynstat_eta_del2             =   3.1825004408323E-04
(PID.TID 0000.0001) %MON dynstat_uvel_max             =   1.3569819802000E-02
(PID.TID 0000.0001) %MON dynstat_uvel_min             =  -3.9799481774989E-02
(PID.TID 0000.0001) %MON dynstat_uvel_mean            =  -4.2582810335696E-05
(PID.TID 0000.0001) %MON dynstat_uvel_sd              =   1.6572859180998E-03
(PID.TID 0000.0001) %MON dynstat_uvel_del2            =   7.1738473054730E-08
(PID.TID 0000.0001) %MON dynstat_vvel_max             =   5.7203846907805E-02
(PID.TID 0000.0001) %MON dynstat_vvel_min             =  -1.9063619819021E-02
(PID.TID 0000.0001) %MON dynstat_vvel_mean            =   1.8590067713442E-04
(PID.TID 0000.0001) %MON dynstat_vvel_sd              =   2.0560044923048E-03
(PID.TID 0000.0001) %MON dynstat_vvel_del2            =   4.3798176341935E-08
(PID.TID 0000.0001) %MON dynstat_wvel_max             =   6.6534634176380E-03
(PID.TID 0000.0001) %MON dynstat_wvel_min             =  -1.4785873083804E-02
(PID.TID 0000.0001) %MON dynstat_wvel_mean            =   3.6268617331414E-06
(PID.TID 0000.0001) %MON dynstat_wvel_sd              =   4.2884324016048E-04
(PID.TID 0000.0001) %MON dynstat_wvel_del2            =   2.1548374697878E-07
(PID.TID 0000.0001) %MON dynstat_theta_max            =   2.9331144433738E-01
(PID.TID 0000.0001) %MON dynstat_theta_min            =  -2.2662896800089E+00
(PID.TID 0000.0001) %MON dynstat_theta_mean           =   1.7407020941292E-01
(PID.TID 0000.0001) %MON dynstat_theta_sd             =   2.3287566786129E-01
(PID.TID 0000.0001) %MON dynstat_theta_del2           =   1.4601587018419E-06
(PID.TID 0000.0001) %MON dynstat_salt_max             =   3.4777442714346E+01
(PID.TID 0000.0001) %MON dynstat_salt_min             =   2.9766698558579E+01
(PID.TID 0000.0001) %MON dynstat_salt_mean            =   3.4616487441476E+01
(PID.TID 0000.0001) %MON dynstat_salt_sd              =   5.8407849535585E-01
(PID.TID 0000.0001) %MON dynstat_salt_del2            =   1.6628196179459E-06
(PID.TID 0000.0001) %MON dynstat_sst_max              =   0.0000000000000E+00
(PID.TID 0000.0001) %MON dynstat_sst_min              =  -5.2680641127484E-01
(PID.TID 0000.0001) %MON dynstat_sst_mean             =  -4.5808917804297E-02
(PID.TID 0000.0001) %MON dynstat_sst_sd               =   9.0840076899776E-02
(PID.TID 0000.0001) %MON dynstat_sst_del2             =   8.3724146589019E-05
(PID.TID 0000.0001) %MON dynstat_sss_max              =   3.0529563290503E+01
(PID.TID 0000.0001) %MON dynstat_sss_min              =   0.0000000000000E+00
(PID.TID 0000.0001) %MON dynstat_sss_mean             =   7.2409643284337E+00
(PID.TID 0000.0001) %MON dynstat_sss_sd               =   1.2862563780249E+01
(PID.TID 0000.0001) %MON dynstat_sss_del2             =   7.0181799552318E-03
(PID.TID 0000.0001) %MON forcing_qnet_max             =   0.0000000000000E+00
(PID.TID 0000.0001) %MON forcing_qnet_min             =   0.0000000000000E+00
(PID.TID 0000.0001) %MON forcing_qnet_mean            =   0.0000000000000E+00
(PID.TID 0000.0001) %MON forcing_qnet_sd              =   0.0000000000000E+00
(PID.TID 0000.0001) %MON forcing_qnet_del2            =   0.0000000000000E+00
(PID.TID 0000.0001) %MON forcing_qsw_max              =   0.0000000000000E+00
(PID.TID 0000.0001) %MON forcing_qsw_min              =   0.0000000000000E+00
(PID.TID 0000.0001) %MON forcing_qsw_mean             =   0.0000000000000E+00
(PID.TID 0000.0001) %MON forcing_qsw_sd               =   0.0000000000000E+00
(PID.TID 0000.0001) %MON forcing_qsw_del2             =   0.0000000000000E+00
(PID.TID 0000.0001) %MON forcing_empmr_max            =   1.7933533242819E-05
(PID.TID 0000.0001) %MON forcing_empmr_min            =  -3.6196357613801E-04
(PID.TID 0000.0001) %MON forcing_empmr_mean           =  -3.7629673997863E-05
(PID.TID 0000.0001) %MON forcing_empmr_sd             =   5.4079342975623E-05
(PID.TID 0000.0001) %MON forcing_empmr_del2           =   1.8430335305139E-07
(PID.TID 0000.0001) %MON forcing_fu_max               =   0.0000000000000E+00
(PID.TID 0000.0001) %MON forcing_fu_min               =   0.0000000000000E+00
(PID.TID 0000.0001) %MON forcing_fu_mean              =   0.0000000000000E+00
(PID.TID 0000.0001) %MON forcing_fu_sd                =   0.0000000000000E+00
(PID.TID 0000.0001) %MON forcing_fu_del2              =   0.0000000000000E+00
(PID.TID 0000.0001) %MON forcing_fv_max               =   0.0000000000000E+00
(PID.TID 0000.0001) %MON forcing_fv_min               =   0.0000000000000E+00
(PID.TID 0000.0001) %MON forcing_fv_mean              =   0.0000000000000E+00
(PID.TID 0000.0001) %MON forcing_fv_sd                =   0.0000000000000E+00
(PID.TID 0000.0001) %MON forcing_fv_del2              =   0.0000000000000E+00
(PID.TID 0000.0001) %MON trAdv_CFL_u_max              =   9.7886921313469E-03
(PID.TID 0000.0001) %MON trAdv_CFL_v_max              =   2.2926251963277E-03
(PID.TID 0000.0001) %MON trAdv_CFL_w_max              =   5.9099758513915E-02
(PID.TID 0000.0001) %MON advcfl_uvel_max              =   9.7886921313647E-03
(PID.TID 0000.0001) %MON advcfl_vvel_max              =   2.2927336618134E-03
(PID.TID 0000.0001) %MON advcfl_wvel_max              =   5.9099758513915E-02
(PID.TID 0000.0001) %MON advcfl_W_hf_max              =   5.9099758513915E-02
(PID.TID 0000.0001) %MON pe_b_mean                    =   4.7436304105318E-04
(PID.TID 0000.0001) %MON ke_max                       =   1.9460492237148E-03
(PID.TID 0000.0001) %MON ke_mean                      =   3.4737043677772E-06
(PID.TID 0000.0001) %MON ke_vol                       =   1.7987028848581E+11
(PID.TID 0000.0001) %MON vort_r_min                   =  -3.8272801085151E-03
(PID.TID 0000.0001) %MON vort_r_max                   =   8.6387701193688E-04
(PID.TID 0000.0001) %MON vort_a_mean                  =   1.4389824107846E-04
(PID.TID 0000.0001) %MON vort_a_sd                    =   1.9129984183803E-05
(PID.TID 0000.0001) %MON vort_p_mean                  =   1.4952875527726E-04
(PID.TID 0000.0001) %MON vort_p_sd                    =   5.4695339120419E-05
(PID.TID 0000.0001) %MON surfExpan_theta_mean         =  -1.6009837492159E-06
(PID.TID 0000.0001) %MON surfExpan_salt_mean          =  -5.0348110306171E-05
(PID.TID 0000.0001) // =======================================================
(PID.TID 0000.0001) // End MONITOR dynamic field statistics
(PID.TID 0000.0001) // =======================================================
(PID.TID 0000.0001) // =======================================================
(PID.TID 0000.0001) // Begin OBCS MONITOR field statistics
(PID.TID 0000.0001) // =======================================================
(PID.TID 0000.0001) %MON obc_N_vVel_max               =   0.0000000000000E+00
(PID.TID 0000.0001) %MON obc_N_vVel_min               =   0.0000000000000E+00
(PID.TID 0000.0001) %MON obc_N_vVel_mean              =   0.0000000000000E+00
(PID.TID 0000.0001) %MON obc_N_vVel_sd                =   0.0000000000000E+00
(PID.TID 0000.0001) %MON obc_N_vVel_Int               =   0.0000000000000E+00
(PID.TID 0000.0001) // =======================================================
(PID.TID 0000.0001) // End OBCS MONITOR field statistics
(PID.TID 0000.0001) // =======================================================
(PID.TID 0000.0001) DIAGSTATS_CLOSE_IO: close file: dynStDiag.0000756000.txt , unit=     9
(PID.TID 0000.0001) DIAGSTATS_CLOSE_IO: close file: surfStDiag.0000756000.txt , unit=    10
(PID.TID 0000.0001) %CHECKPOINT    756020 ckptA
(PID.TID 0000.0001)   Seconds in section "ALL                    [THE_MODEL_MAIN]":
(PID.TID 0000.0001)           User time:   598.409915924072
(PID.TID 0000.0001)         System time:  0.000000000000000E+000
(PID.TID 0000.0001)     Wall clock time:   764.329087972641
(PID.TID 0000.0001)          No. starts:           1
(PID.TID 0000.0001)           No. stops:           1
(PID.TID 0000.0001)   Seconds in section "INITIALISE_FIXED       [THE_MODEL_MAIN]":
(PID.TID 0000.0001)           User time:   78.2773284912109
(PID.TID 0000.0001)         System time:  0.000000000000000E+000
(PID.TID 0000.0001)     Wall clock time:   92.6241950988770
(PID.TID 0000.0001)          No. starts:           1
(PID.TID 0000.0001)           No. stops:           1
(PID.TID 0000.0001)   Seconds in section "THE_MAIN_LOOP          [THE_MODEL_MAIN]":
(PID.TID 0000.0001)           User time:   520.132553100586
(PID.TID 0000.0001)         System time:  0.000000000000000E+000
(PID.TID 0000.0001)     Wall clock time:   671.704868078232
(PID.TID 0000.0001)          No. starts:           1
(PID.TID 0000.0001)           No. stops:           1
(PID.TID 0000.0001)   Seconds in section "INITIALISE_VARIA    [THE_MAIN_LOOP]":
(PID.TID 0000.0001)           User time:   39.2469329833984
(PID.TID 0000.0001)         System time:  0.000000000000000E+000
(PID.TID 0000.0001)     Wall clock time:   54.2565519809723
(PID.TID 0000.0001)          No. starts:           1
(PID.TID 0000.0001)           No. stops:           1
(PID.TID 0000.0001)   Seconds in section "MAIN LOOP           [THE_MAIN_LOOP]":
(PID.TID 0000.0001)           User time:   480.885543823242
(PID.TID 0000.0001)         System time:  0.000000000000000E+000
(PID.TID 0000.0001)     Wall clock time:   617.447919845581
(PID.TID 0000.0001)          No. starts:           1
(PID.TID 0000.0001)           No. stops:           1
(PID.TID 0000.0001)   Seconds in section "MAIN_DO_LOOP        [THE_MAIN_LOOP]":
(PID.TID 0000.0001)           User time:   480.885528564453
(PID.TID 0000.0001)         System time:  0.000000000000000E+000
(PID.TID 0000.0001)     Wall clock time:   617.447773456573
(PID.TID 0000.0001)          No. starts:          20
(PID.TID 0000.0001)           No. stops:          20
(PID.TID 0000.0001)   Seconds in section "FORWARD_STEP        [MAIN_DO_LOOP]":
(PID.TID 0000.0001)           User time:   480.885253906250
(PID.TID 0000.0001)         System time:  0.000000000000000E+000
(PID.TID 0000.0001)     Wall clock time:   617.447113990784
(PID.TID 0000.0001)          No. starts:          20
(PID.TID 0000.0001)           No. stops:          20
(PID.TID 0000.0001)   Seconds in section "SHELFICE_REMESHING     [FORWARD_STEP]":
(PID.TID 0000.0001)           User time:   1.29592895507812
(PID.TID 0000.0001)         System time:  0.000000000000000E+000
(PID.TID 0000.0001)     Wall clock time:   1.38140940666199
(PID.TID 0000.0001)          No. starts:          20
(PID.TID 0000.0001)           No. stops:          20
(PID.TID 0000.0001)   Seconds in section "DO_STATEVARS_DIAGS  [FORWARD_STEP]":
(PID.TID 0000.0001)           User time:  0.716232299804688
(PID.TID 0000.0001)         System time:  0.000000000000000E+000
(PID.TID 0000.0001)     Wall clock time:  0.760554075241089
(PID.TID 0000.0001)          No. starts:          60
(PID.TID 0000.0001)           No. stops:          60
(PID.TID 0000.0001)   Seconds in section "LOAD_FIELDS_DRIVER  [FORWARD_STEP]":
(PID.TID 0000.0001)           User time:  7.629394531250000E-004
(PID.TID 0000.0001)         System time:  0.000000000000000E+000
(PID.TID 0000.0001)     Wall clock time:  3.427743911743164E-003
(PID.TID 0000.0001)          No. starts:          20
(PID.TID 0000.0001)           No. stops:          20
(PID.TID 0000.0001)   Seconds in section "EXTERNAL_FLDS_LOAD [LOAD_FLDS_DRIVER]":
(PID.TID 0000.0001)           User time:  4.882812500000000E-004
(PID.TID 0000.0001)         System time:  0.000000000000000E+000
(PID.TID 0000.0001)     Wall clock time:  2.715110778808594E-003
(PID.TID 0000.0001)          No. starts:          20
(PID.TID 0000.0001)           No. stops:          20
(PID.TID 0000.0001)   Seconds in section "DO_ATMOSPHERIC_PHYS [FORWARD_STEP]":
(PID.TID 0000.0001)           User time:  4.272460937500000E-004
(PID.TID 0000.0001)         System time:  0.000000000000000E+000
(PID.TID 0000.0001)     Wall clock time:  3.247499465942383E-003
(PID.TID 0000.0001)          No. starts:          20
(PID.TID 0000.0001)           No. stops:          20
(PID.TID 0000.0001)   Seconds in section "DO_OCEANIC_PHYS     [FORWARD_STEP]":
(PID.TID 0000.0001)           User time:   2.24655151367188
(PID.TID 0000.0001)         System time:  0.000000000000000E+000
(PID.TID 0000.0001)     Wall clock time:   2.36635732650757
(PID.TID 0000.0001)          No. starts:          20
(PID.TID 0000.0001)           No. stops:          20
(PID.TID 0000.0001)   Seconds in section "SHELFICE_THERMODYNAMICS [DO_OCEANIC_PHYS]":
(PID.TID 0000.0001)           User time:  2.700805664062500E-003
(PID.TID 0000.0001)         System time:  0.000000000000000E+000
(PID.TID 0000.0001)     Wall clock time:  1.657176017761230E-002
(PID.TID 0000.0001)          No. starts:          20
(PID.TID 0000.0001)           No. stops:          20
(PID.TID 0000.0001)   Seconds in section "DYNAMICS            [FORWARD_STEP]":
(PID.TID 0000.0001)           User time:   10.3601226806641
(PID.TID 0000.0001)         System time:  0.000000000000000E+000
(PID.TID 0000.0001)     Wall clock time:   10.6918644905090
(PID.TID 0000.0001)          No. starts:          20
(PID.TID 0000.0001)           No. stops:          20
(PID.TID 0000.0001)   Seconds in section "UPDATE_SURF_DR      [FORWARD_STEP]":
(PID.TID 0000.0001)           User time:  3.967285156250000E-004
(PID.TID 0000.0001)         System time:  0.000000000000000E+000
(PID.TID 0000.0001)     Wall clock time:  4.611015319824219E-004
(PID.TID 0000.0001)          No. starts:          20
(PID.TID 0000.0001)           No. stops:          20
(PID.TID 0000.0001)   Seconds in section "UPDATE_CG2D         [FORWARD_STEP]":
(PID.TID 0000.0001)           User time:  0.212509155273438
(PID.TID 0000.0001)         System time:  0.000000000000000E+000
(PID.TID 0000.0001)     Wall clock time:  0.218578577041626
(PID.TID 0000.0001)          No. starts:          20
(PID.TID 0000.0001)           No. stops:          20
(PID.TID 0000.0001)   Seconds in section "SOLVE_FOR_PRESSURE  [FORWARD_STEP]":
(PID.TID 0000.0001)           User time:   5.91612243652344
(PID.TID 0000.0001)         System time:  0.000000000000000E+000
(PID.TID 0000.0001)     Wall clock time:   5.95682954788208
(PID.TID 0000.0001)          No. starts:          20
(PID.TID 0000.0001)           No. stops:          20
(PID.TID 0000.0001)   Seconds in section "MOM_CORRECTION_STEP [FORWARD_STEP]":
(PID.TID 0000.0001)           User time:  0.516540527343750
(PID.TID 0000.0001)         System time:  0.000000000000000E+000
(PID.TID 0000.0001)     Wall clock time:  0.545485973358154
(PID.TID 0000.0001)          No. starts:          20
(PID.TID 0000.0001)           No. stops:          20
(PID.TID 0000.0001)   Seconds in section "INTEGR_CONTINUITY   [FORWARD_STEP]":
(PID.TID 0000.0001)           User time:  0.527297973632812
(PID.TID 0000.0001)         System time:  0.000000000000000E+000
(PID.TID 0000.0001)     Wall clock time:  0.529894828796387
(PID.TID 0000.0001)          No. starts:          20
(PID.TID 0000.0001)           No. stops:          20
(PID.TID 0000.0001)   Seconds in section "CALC_SURF_DR      [FORWARD_STEP]":
(PID.TID 0000.0001)           User time:   13.6224060058594
(PID.TID 0000.0001)         System time:  0.000000000000000E+000
(PID.TID 0000.0001)     Wall clock time:   13.6318018436432
(PID.TID 0000.0001)          No. starts:          20
(PID.TID 0000.0001)           No. stops:          20
(PID.TID 0000.0001)   Seconds in section "BLOCKING_EXCHANGES  [FORWARD_STEP]":
(PID.TID 0000.0001)           User time:  0.977981567382812
(PID.TID 0000.0001)         System time:  0.000000000000000E+000
(PID.TID 0000.0001)     Wall clock time:   1.12560272216797
(PID.TID 0000.0001)          No. starts:          40
(PID.TID 0000.0001)           No. stops:          40
(PID.TID 0000.0001)   Seconds in section "THERMODYNAMICS      [FORWARD_STEP]":
(PID.TID 0000.0001)           User time:   16.0225677490234
(PID.TID 0000.0001)         System time:  0.000000000000000E+000
(PID.TID 0000.0001)     Wall clock time:   16.2410802841187
(PID.TID 0000.0001)          No. starts:          20
(PID.TID 0000.0001)           No. stops:          20
(PID.TID 0000.0001)   Seconds in section "TRC_CORRECTION_STEP [FORWARD_STEP]":
(PID.TID 0000.0001)           User time:  1.831054687500000E-004
(PID.TID 0000.0001)         System time:  0.000000000000000E+000
(PID.TID 0000.0001)     Wall clock time:  1.456737518310547E-004
(PID.TID 0000.0001)          No. starts:          20
(PID.TID 0000.0001)           No. stops:          20
(PID.TID 0000.0001)   Seconds in section "MONITOR             [FORWARD_STEP]":
(PID.TID 0000.0001)           User time:   3.24409484863281
(PID.TID 0000.0001)         System time:  0.000000000000000E+000
(PID.TID 0000.0001)     Wall clock time:   3.32191205024719
(PID.TID 0000.0001)          No. starts:          20
(PID.TID 0000.0001)           No. stops:          20
(PID.TID 0000.0001)   Seconds in section "DO_THE_MODEL_IO     [FORWARD_STEP]":
(PID.TID 0000.0001)           User time:   398.847122192383
(PID.TID 0000.0001)         System time:  0.000000000000000E+000
(PID.TID 0000.0001)     Wall clock time:   521.516200780869
(PID.TID 0000.0001)          No. starts:          20
(PID.TID 0000.0001)           No. stops:          20
(PID.TID 0000.0001)   Seconds in section "DO_WRITE_PICKUP     [FORWARD_STEP]":
(PID.TID 0000.0001)           User time:   26.3740234375000
(PID.TID 0000.0001)         System time:  0.000000000000000E+000
(PID.TID 0000.0001)     Wall clock time:   39.1473374366760
(PID.TID 0000.0001)          No. starts:          20
(PID.TID 0000.0001)           No. stops:          20
(PID.TID 0000.0001) // ======================================================
(PID.TID 0000.0001) // Tile <-> Tile communication statistics
(PID.TID 0000.0001) // ======================================================
(PID.TID 0000.0001) // o Tile number: 000001
(PID.TID 0000.0001) //         No. X exchanges =              0
(PID.TID 0000.0001) //            Max. X spins =              0
(PID.TID 0000.0001) //            Min. X spins =     1000000000
(PID.TID 0000.0001) //          Total. X spins =              0
(PID.TID 0000.0001) //            Avg. X spins =       0.00E+00
(PID.TID 0000.0001) //         No. Y exchanges =              0
(PID.TID 0000.0001) //            Max. Y spins =              0
(PID.TID 0000.0001) //            Min. Y spins =     1000000000
(PID.TID 0000.0001) //          Total. Y spins =              0
(PID.TID 0000.0001) //            Avg. Y spins =       0.00E+00
(PID.TID 0000.0001) // o Thread number: 000001
(PID.TID 0000.0001) //            No. barriers =         415822
(PID.TID 0000.0001) //      Max. barrier spins =              1
(PID.TID 0000.0001) //      Min. barrier spins =              1
(PID.TID 0000.0001) //     Total barrier spins =         415822
(PID.TID 0000.0001) //      Avg. barrier spins =       1.00E+00
PROGRAM MAIN: Execution ended Normally
